/*---------------------------------------------------------------------------*\
| =========                 |                                                 |
| \\      /  F ield         | OpenFOAM: The Open Source CFD Toolbox           |
|  \\    /   O peration     | Version:  2312                                  |
|   \\  /    A nd           | Website:  www.openfoam.com                      |
|    \\/     M anipulation  |                                                 |
\*---------------------------------------------------------------------------*/
Build  : _e651d635-20240208 OPENFOAM=2312 patch=240220 version=2312
Arch   : "LSB;label=32;scalar=64"
Exec   : simpleFoam
Date   : Sep 09 2024
Time   : 08:21:37
Host   : prish
PID    : 538
I/O    : uncollated
Case   : /mnt/c/users/pripe/desktop/airfoil/fluid_resi
nProcs : 1
trapFpe: Floating point exception trapping enabled (FOAM_SIGFPE).
fileModificationChecking : Monitoring run-time modified files using timeStampMaster (fileModificationSkew 5, maxFileModificationPolls 20)
allowSystemOperations : Allowing user-supplied system call operations

// * * * * * * * * * * * * * * * * * * * * * * * * * * * * * * * * * * * * * //
Create time

Create mesh for time = 0


SIMPLE: convergence criteria
    field p	 tolerance 1e-05
    field U	 tolerance 1e-05
    field nuTilda	 tolerance 1e-05

Reading field p

Reading field U

Reading/calculating face flux field phi

Selecting incompressible transport model Newtonian
Selecting turbulence model type RAS
Selecting RAS turbulence model kOmegaSST
Selecting patchDistMethod meshWave
RAS
{
    RASModel        kOmegaSST;
    turbulence      on;
    printCoeffs     on;
    alphaK1         0.85;
    alphaK2         1;
    alphaOmega1     0.5;
    alphaOmega2     0.856;
    gamma1          0.555556;
    gamma2          0.44;
    beta1           0.075;
    beta2           0.0828;
    betaStar        0.09;
    a1              0.31;
    b1              1;
    c1              10;
    F3              false;
    decayControl    false;
    kInf            0;
    omegaInf        0;
}

No MRF models present

No finite volume options present

Starting time loop

forceCoeffs forceCoeffs1:
    p: p
    U: U
    rho: rhoInf
    Freestream density (rhoInf) set to 1.2
    Reference pressure (pRef) set to 0
    Not including porosity effects
    Fields will be written
    magUInf: 36.6
    lRef   : 1
    Aref   : 0.15
    rhoInf : 1.2
    Selecting all coefficients
    - Drag force: Cd
    - Drag force front: Cd(f)
    - Drag force rear: Cd(r)
    - Lift force: Cl
    - Lift force front: Cl(f)
    - Lift force rear: Cl(r)
    - Pitch moment: CmPitch
    - Roll moment: CmRoll
    - Yaw moment: CmYaw
    - Side force: Cs
    - Side force front: Cs(f)
    - Side force rear: Cs(r)


Time = 0.005

smoothSolver:  Solving for Ux, Initial residual = 1, Final residual = 0.0770317, No Iterations 2
smoothSolver:  Solving for Uy, Initial residual = 1, Final residual = 0.0844182, No Iterations 2
GAMG:  Solving for p, Initial residual = 1, Final residual = 0.00982781, No Iterations 12
GAMG:  Solving for p, Initial residual = 1.07246e-05, Final residual = 6.89859e-08, No Iterations 10
GAMG:  Solving for p, Initial residual = 6.89612e-08, Final residual = 6.89612e-08, No Iterations 0
GAMG:  Solving for p, Initial residual = 6.89612e-08, Final residual = 6.89612e-08, No Iterations 0
GAMG:  Solving for p, Initial residual = 6.89612e-08, Final residual = 6.89612e-08, No Iterations 0
GAMG:  Solving for p, Initial residual = 6.89612e-08, Final residual = 6.89612e-08, No Iterations 0
time step continuity errors : sum local = 9.19094e-07, global = -3.65121e-08, cumulative = -3.65121e-08
smoothSolver:  Solving for omega, Initial residual = 0.283973, Final residual = 0.0279183, No Iterations 2
smoothSolver:  Solving for k, Initial residual = 1, Final residual = 0.0676104, No Iterations 6
ExecutionTime = 5.06 s  ClockTime = 66 s

forceCoeffs forceCoeffs1 write:
    Coefficient	Total	Pressure	Viscous	Internal
    Cd:	1.20483	1.20483	2.77162e-09	0
    Cd(f):	0.556122	0.556122	1.3938e-09	0
    Cd(r):	0.648705	0.648705	1.37781e-09	0
    Cl:	0.61722	0.61722	-1.06605e-10	0
    Cl(f):	-0.225469	-0.225469	7.77548e-11	0
    Cl(r):	0.842689	0.842689	-1.8436e-10	0
    CmPitch:	-0.534079	-0.534079	1.31057e-10	0
    CmRoll:	-0.0462915	-0.0462915	7.99536e-12	0
    CmYaw:	0.0903621	0.0903621	2.07871e-10	0
    Cs:	-1.36866e-19	-1.36893e-19	2.66094e-23	0
    Cs(f):	0.0903621	0.0903621	2.07871e-10	0
    Cs(r):	-0.0903621	-0.0903621	-2.07871e-10	0

    writing force and moment coefficient files.

yPlus yPlus1 write:
    writing field yPlus
    patch airfoil y+ : min = 5.60617e-07, max = 2.38562e-05, average = 5.65124e-06
Time = 0.01

smoothSolver:  Solving for Ux, Initial residual = 0.140116, Final residual = 0.00910193, No Iterations 6
smoothSolver:  Solving for Uy, Initial residual = 0.334737, Final residual = 0.0249452, No Iterations 4
GAMG:  Solving for p, Initial residual = 0.0130508, Final residual = 0.000114343, No Iterations 11
GAMG:  Solving for p, Initial residual = 0.00124345, Final residual = 1.01106e-05, No Iterations 24
GAMG:  Solving for p, Initial residual = 1.15572e-05, Final residual = 1.09297e-07, No Iterations 41
GAMG:  Solving for p, Initial residual = 1.09474e-07, Final residual = 9.15035e-08, No Iterations 2
GAMG:  Solving for p, Initial residual = 9.15033e-08, Final residual = 9.15033e-08, No Iterations 0
GAMG:  Solving for p, Initial residual = 9.15033e-08, Final residual = 9.15033e-08, No Iterations 0
time step continuity errors : sum local = 1.76284e-08, global = -5.43497e-10, cumulative = -3.70556e-08
smoothSolver:  Solving for omega, Initial residual = 0.134745, Final residual = 0.00258629, No Iterations 1
smoothSolver:  Solving for k, Initial residual = 0.912763, Final residual = 0.0746108, No Iterations 1
ExecutionTime = 5.66 s  ClockTime = 67 s

forceCoeffs forceCoeffs1 write:
    Coefficient	Total	Pressure	Viscous	Internal
    Cd:	0.205525	0.205519	5.47514e-06	0
    Cd(f):	0.0924824	0.0924796	2.74744e-06	0
    Cd(r):	0.113042	0.113039	2.7277e-06	0
    Cl:	0.137065	0.137065	-1.31566e-07	0
    Cl(f):	-0.0190492	-0.0190493	1.11771e-07	0
    Cl(r):	0.156114	0.156114	-2.43337e-07	0
    CmPitch:	-0.0875816	-0.0875818	1.77554e-07	0
    CmRoll:	-0.0102799	-0.0102799	9.86744e-09	0
    CmYaw:	0.0154143	0.0154139	4.10635e-07	0
    Cs:	-1.16919e-20	-9.87655e-21	-1.81534e-21	0
    Cs(f):	0.0154143	0.0154139	4.10635e-07	0
    Cs(r):	-0.0154143	-0.0154139	-4.10635e-07	0

    writing force and moment coefficient files.

yPlus yPlus1 write:
    writing field yPlus
    patch airfoil y+ : min = 2.27664e-05, max = 0.00103725, average = 0.000246333
Time = 0.015

smoothSolver:  Solving for Ux, Initial residual = 0.0200974, Final residual = 0.00147261, No Iterations 5
smoothSolver:  Solving for Uy, Initial residual = 0.197371, Final residual = 0.0163567, No Iterations 4
GAMG:  Solving for p, Initial residual = 0.0893125, Final residual = 0.000596387, No Iterations 6
GAMG:  Solving for p, Initial residual = 0.00155332, Final residual = 1.54083e-05, No Iterations 20
GAMG:  Solving for p, Initial residual = 1.46095e-05, Final residual = 1.28764e-07, No Iterations 45
GAMG:  Solving for p, Initial residual = 1.28591e-07, Final residual = 8.06962e-08, No Iterations 4
GAMG:  Solving for p, Initial residual = 8.0696e-08, Final residual = 8.0696e-08, No Iterations 0
GAMG:  Solving for p, Initial residual = 8.0696e-08, Final residual = 8.0696e-08, No Iterations 0
time step continuity errors : sum local = 6.06583e-09, global = 1.16261e-10, cumulative = -3.69393e-08
smoothSolver:  Solving for omega, Initial residual = 0.00272783, Final residual = 4.94542e-05, No Iterations 2
smoothSolver:  Solving for k, Initial residual = 0.102564, Final residual = 0.00742242, No Iterations 2
ExecutionTime = 6.27 s  ClockTime = 68 s

forceCoeffs forceCoeffs1 write:
    Coefficient	Total	Pressure	Viscous	Internal
    Cd:	0.0734273	0.0734248	2.50008e-06	0
    Cd(f):	0.0343979	0.0343967	1.2509e-06	0
    Cd(r):	0.0390293	0.0390281	1.24917e-06	0
    Cl:	0.030876	0.030876	-1.15359e-08	0
    Cl(f):	0.0174211	0.017421	6.16514e-08	0
    Cl(r):	0.0134549	0.013455	-7.31873e-08	0
    CmPitch:	0.0019831	0.00198303	6.74193e-08	0
    CmRoll:	-0.0023157	-0.0023157	8.65189e-10	0
    CmYaw:	0.00550705	0.00550686	1.87506e-07	0
    Cs:	-3.28592e-22	-1.06567e-21	7.3708e-22	0
    Cs(f):	0.00550705	0.00550686	1.87506e-07	0
    Cs(r):	-0.00550705	-0.00550686	-1.87506e-07	0

    writing force and moment coefficient files.

yPlus yPlus1 write:
    writing field yPlus
    patch airfoil y+ : min = 3.44005e-05, max = 0.00070934, average = 0.000151483
Time = 0.02

smoothSolver:  Solving for Ux, Initial residual = 0.00765938, Final residual = 0.000555834, No Iterations 5
smoothSolver:  Solving for Uy, Initial residual = 0.110651, Final residual = 0.00809231, No Iterations 5
GAMG:  Solving for p, Initial residual = 0.137702, Final residual = 0.00113354, No Iterations 5
GAMG:  Solving for p, Initial residual = 0.00109068, Final residual = 9.16683e-06, No Iterations 14
GAMG:  Solving for p, Initial residual = 8.99578e-06, Final residual = 9.56136e-08, No Iterations 27
GAMG:  Solving for p, Initial residual = 9.55177e-08, Final residual = 9.55177e-08, No Iterations 0
GAMG:  Solving for p, Initial residual = 9.55177e-08, Final residual = 9.55177e-08, No Iterations 0
GAMG:  Solving for p, Initial residual = 9.55177e-08, Final residual = 9.55177e-08, No Iterations 0
time step continuity errors : sum local = 7.13858e-09, global = 6.67763e-10, cumulative = -3.62715e-08
smoothSolver:  Solving for omega, Initial residual = 0.00036117, Final residual = 4.60079e-06, No Iterations 2
smoothSolver:  Solving for k, Initial residual = 0.0292818, Final residual = 0.00180426, No Iterations 4
ExecutionTime = 6.68 s  ClockTime = 68 s

forceCoeffs forceCoeffs1 write:
    Coefficient	Total	Pressure	Viscous	Internal
    Cd:	0.0694143	0.0694124	1.90231e-06	0
    Cd(f):	0.0314044	0.0314035	9.43873e-07	0
    Cd(r):	0.0380099	0.0380089	9.58435e-07	0
    Cl:	0.0440364	0.0440363	9.70853e-08	0
    Cl(f):	0.0102589	0.0102589	1.00326e-08	0
    Cl(r):	0.0337775	0.0337774	8.70527e-08	0
    CmPitch:	-0.0117593	-0.0117593	-3.851e-08	0
    CmRoll:	-0.00330273	-0.00330273	-7.2814e-09	0
    CmYaw:	0.00520607	0.00520593	1.42673e-07	0
    Cs:	1.02903e-21	-5.17271e-22	1.5463e-21	0
    Cs(f):	0.00520607	0.00520593	1.42673e-07	0
    Cs(r):	-0.00520607	-0.00520593	-1.42673e-07	0

    writing force and moment coefficient files.

yPlus yPlus1 write:
    writing field yPlus
    patch airfoil y+ : min = 9.37745e-06, max = 0.00061869, average = 0.000133054
Time = 0.025

smoothSolver:  Solving for Ux, Initial residual = 0.00547778, Final residual = 0.000470436, No Iterations 5
smoothSolver:  Solving for Uy, Initial residual = 0.0887234, Final residual = 0.00784781, No Iterations 5
GAMG:  Solving for p, Initial residual = 0.10223, Final residual = 0.00059209, No Iterations 5
GAMG:  Solving for p, Initial residual = 0.000636467, Final residual = 5.7078e-06, No Iterations 13
GAMG:  Solving for p, Initial residual = 5.72373e-06, Final residual = 9.37061e-08, No Iterations 26
GAMG:  Solving for p, Initial residual = 9.37281e-08, Final residual = 9.37281e-08, No Iterations 0
GAMG:  Solving for p, Initial residual = 9.37281e-08, Final residual = 9.37281e-08, No Iterations 0
GAMG:  Solving for p, Initial residual = 9.37281e-08, Final residual = 9.37281e-08, No Iterations 0
time step continuity errors : sum local = 6.15103e-09, global = -4.96716e-10, cumulative = -3.67683e-08
smoothSolver:  Solving for omega, Initial residual = 0.00014064, Final residual = 1.94959e-06, No Iterations 2
smoothSolver:  Solving for k, Initial residual = 0.0145191, Final residual = 0.00100461, No Iterations 5
ExecutionTime = 7.09 s  ClockTime = 69 s

forceCoeffs forceCoeffs1 write:
    Coefficient	Total	Pressure	Viscous	Internal
    Cd:	0.0827209	0.0827187	2.26775e-06	0
    Cd(f):	0.0362579	0.0362567	1.12185e-06	0
    Cd(r):	0.0464631	0.0464619	1.1459e-06	0
    Cl:	0.0680347	0.0680346	1.60385e-07	0
    Cl(f):	0.00305674	0.00305674	6.77275e-10	0
    Cl(r):	0.064978	0.0649778	1.59708e-07	0
    CmPitch:	-0.0309606	-0.0309606	-7.95154e-08	0
    CmRoll:	-0.00510261	-0.00510259	-1.20289e-08	0
    CmYaw:	0.00620407	0.0062039	1.70081e-07	0
    Cs:	1.08509e-21	-8.85606e-22	1.97069e-21	0
    Cs(f):	0.00620407	0.0062039	1.70081e-07	0
    Cs(r):	-0.00620407	-0.0062039	-1.70081e-07	0

    writing force and moment coefficient files.

yPlus yPlus1 write:
    writing field yPlus
    patch airfoil y+ : min = 8.14265e-06, max = 0.000746506, average = 0.000149363
Time = 0.03

smoothSolver:  Solving for Ux, Initial residual = 0.00458449, Final residual = 0.000430344, No Iterations 5
smoothSolver:  Solving for Uy, Initial residual = 0.0779912, Final residual = 0.00750461, No Iterations 5
GAMG:  Solving for p, Initial residual = 0.092623, Final residual = 0.000530749, No Iterations 5
GAMG:  Solving for p, Initial residual = 0.000562133, Final residual = 3.91554e-06, No Iterations 15
GAMG:  Solving for p, Initial residual = 3.91867e-06, Final residual = 9.74355e-08, No Iterations 23
GAMG:  Solving for p, Initial residual = 9.74388e-08, Final residual = 9.74388e-08, No Iterations 0
GAMG:  Solving for p, Initial residual = 9.74388e-08, Final residual = 9.74388e-08, No Iterations 0
GAMG:  Solving for p, Initial residual = 9.74388e-08, Final residual = 9.74388e-08, No Iterations 0
time step continuity errors : sum local = 5.74135e-09, global = -3.86946e-10, cumulative = -3.71552e-08
smoothSolver:  Solving for omega, Initial residual = 5.18512e-05, Final residual = 5.84592e-07, No Iterations 2
smoothSolver:  Solving for k, Initial residual = 0.0111099, Final residual = 0.000975914, No Iterations 5
ExecutionTime = 7.52 s  ClockTime = 69 s

forceCoeffs forceCoeffs1 write:
    Coefficient	Total	Pressure	Viscous	Internal
    Cd:	0.0961799	0.0961769	2.98106e-06	0
    Cd(f):	0.0417219	0.0417204	1.474e-06	0
    Cd(r):	0.054458	0.0544565	1.50706e-06	0
    Cl:	0.0849074	0.0849072	2.20335e-07	0
    Cl(f):	-0.00244752	-0.00244752	2.94844e-09	0
    Cl(r):	0.0873549	0.0873547	2.17386e-07	0
    CmPitch:	-0.0449012	-0.0449011	-1.07219e-07	0
    CmRoll:	-0.00636806	-0.00636804	-1.65251e-08	0
    CmYaw:	0.00721349	0.00721327	2.23579e-07	0
    Cs:	1.05582e-21	-1.19857e-21	2.25439e-21	0
    Cs(f):	0.00721349	0.00721327	2.23579e-07	0
    Cs(r):	-0.00721349	-0.00721327	-2.23579e-07	0

    writing force and moment coefficient files.

yPlus yPlus1 write:
    writing field yPlus
    patch airfoil y+ : min = 1.33445e-05, max = 0.000837875, average = 0.000167772
Time = 0.035

smoothSolver:  Solving for Ux, Initial residual = 0.00412496, Final residual = 0.000406529, No Iterations 5
smoothSolver:  Solving for Uy, Initial residual = 0.0698625, Final residual = 0.00446848, No Iterations 6
GAMG:  Solving for p, Initial residual = 0.0851769, Final residual = 0.00052719, No Iterations 5
GAMG:  Solving for p, Initial residual = 0.000550602, Final residual = 3.60626e-06, No Iterations 14
GAMG:  Solving for p, Initial residual = 3.59759e-06, Final residual = 8.69057e-08, No Iterations 22
GAMG:  Solving for p, Initial residual = 8.68887e-08, Final residual = 8.68887e-08, No Iterations 0
GAMG:  Solving for p, Initial residual = 8.68887e-08, Final residual = 8.68887e-08, No Iterations 0
GAMG:  Solving for p, Initial residual = 8.68887e-08, Final residual = 8.68887e-08, No Iterations 0
time step continuity errors : sum local = 4.69904e-09, global = -2.00972e-10, cumulative = -3.73562e-08
smoothSolver:  Solving for omega, Initial residual = 2.01186e-05, Final residual = 1.82566e-06, No Iterations 1
smoothSolver:  Solving for k, Initial residual = 0.0104343, Final residual = 0.0010034, No Iterations 5
ExecutionTime = 7.88 s  ClockTime = 70 s

forceCoeffs forceCoeffs1 write:
    Coefficient	Total	Pressure	Viscous	Internal
    Cd:	0.108434	0.10843	3.8451e-06	0
    Cd(f):	0.0467614	0.0467595	1.90058e-06	0
    Cd(r):	0.0616724	0.0616705	1.94452e-06	0
    Cl:	0.0994065	0.0994062	2.92947e-07	0
    Cl(f):	-0.00657855	-0.00657856	7.80471e-09	0
    Cl(r):	0.105985	0.105985	2.85142e-07	0
    CmPitch:	-0.0562818	-0.0562817	-1.38669e-07	0
    CmRoll:	-0.00745549	-0.00745547	-2.1971e-08	0
    CmYaw:	0.00813254	0.00813225	2.88382e-07	0
    Cs:	1.06222e-21	-1.41596e-21	2.47818e-21	0
    Cs(f):	0.00813254	0.00813225	2.88382e-07	0
    Cs(r):	-0.00813254	-0.00813225	-2.88382e-07	0

    writing force and moment coefficient files.

yPlus yPlus1 write:
    writing field yPlus
    patch airfoil y+ : min = 4.455e-06, max = 0.000896035, average = 0.000187694
Time = 0.04

smoothSolver:  Solving for Ux, Initial residual = 0.00386812, Final residual = 0.000248964, No Iterations 6
smoothSolver:  Solving for Uy, Initial residual = 0.0626702, Final residual = 0.00409643, No Iterations 6
GAMG:  Solving for p, Initial residual = 0.0768354, Final residual = 0.000513701, No Iterations 5
GAMG:  Solving for p, Initial residual = 0.000537727, Final residual = 5.04851e-06, No Iterations 12
GAMG:  Solving for p, Initial residual = 5.04865e-06, Final residual = 9.80832e-08, No Iterations 25
GAMG:  Solving for p, Initial residual = 9.80744e-08, Final residual = 9.80744e-08, No Iterations 0
GAMG:  Solving for p, Initial residual = 9.80744e-08, Final residual = 9.80744e-08, No Iterations 0
GAMG:  Solving for p, Initial residual = 9.80744e-08, Final residual = 9.80744e-08, No Iterations 0
time step continuity errors : sum local = 4.86642e-09, global = -3.21641e-10, cumulative = -3.76778e-08
smoothSolver:  Solving for omega, Initial residual = 5.65436e-06, Final residual = 3.99261e-07, No Iterations 1
smoothSolver:  Solving for k, Initial residual = 0.0103681, Final residual = 0.00102339, No Iterations 5
ExecutionTime = 8.3 s  ClockTime = 70 s

forceCoeffs forceCoeffs1 write:
    Coefficient	Total	Pressure	Viscous	Internal
    Cd:	0.117232	0.117228	4.87532e-06	0
    Cd(f):	0.0506586	0.0506562	2.40957e-06	0
    Cd(r):	0.0665738	0.0665714	2.46574e-06	0
    Cl:	0.106102	0.106101	3.74472e-07	0
    Cl(f):	-0.00858073	-0.00858074	1.78409e-08	0
    Cl(r):	0.114682	0.114682	3.56631e-07	0
    CmPitch:	-0.0616315	-0.0616313	-1.69395e-07	0
    CmRoll:	-0.00795762	-0.00795759	-2.80854e-08	0
    CmYaw:	0.00879243	0.00879206	3.65649e-07	0
    Cs:	1.02343e-21	-1.58712e-21	2.61055e-21	0
    Cs(f):	0.00879243	0.00879206	3.65649e-07	0
    Cs(r):	-0.00879243	-0.00879206	-3.65649e-07	0

    writing force and moment coefficient files.

yPlus yPlus1 write:
    writing field yPlus
    patch airfoil y+ : min = 9.19989e-06, max = 0.000947965, average = 0.000209608
Time = 0.045

smoothSolver:  Solving for Ux, Initial residual = 0.00361382, Final residual = 0.000238095, No Iterations 6
smoothSolver:  Solving for Uy, Initial residual = 0.0578937, Final residual = 0.00386179, No Iterations 6
GAMG:  Solving for p, Initial residual = 0.0695304, Final residual = 0.000522722, No Iterations 5
GAMG:  Solving for p, Initial residual = 0.00054404, Final residual = 4.6694e-06, No Iterations 12
GAMG:  Solving for p, Initial residual = 4.67413e-06, Final residual = 9.26321e-08, No Iterations 22
GAMG:  Solving for p, Initial residual = 9.26381e-08, Final residual = 9.26381e-08, No Iterations 0
GAMG:  Solving for p, Initial residual = 9.26381e-08, Final residual = 9.26381e-08, No Iterations 0
GAMG:  Solving for p, Initial residual = 9.26381e-08, Final residual = 9.26381e-08, No Iterations 0
time step continuity errors : sum local = 4.26097e-09, global = -3.3779e-10, cumulative = -3.80156e-08
smoothSolver:  Solving for omega, Initial residual = 1.7759e-06, Final residual = 1.14474e-07, No Iterations 1
smoothSolver:  Solving for k, Initial residual = 0.0105258, Final residual = 0.000661787, No Iterations 6
ExecutionTime = 8.68 s  ClockTime = 71 s

forceCoeffs forceCoeffs1 write:
    Coefficient	Total	Pressure	Viscous	Internal
    Cd:	0.124116	0.12411	5.9971e-06	0
    Cd(f):	0.0538262	0.0538232	2.96229e-06	0
    Cd(r):	0.0702901	0.0702871	3.03481e-06	0
    Cl:	0.109759	0.109759	4.83495e-07	0
    Cl(f):	-0.00965555	-0.00965558	2.42929e-08	0
    Cl(r):	0.119415	0.119415	4.59203e-07	0
    CmPitch:	-0.0645353	-0.0645351	-2.17455e-07	0
    CmRoll:	-0.00823196	-0.00823192	-3.62622e-08	0
    CmYaw:	0.00930872	0.00930827	4.49782e-07	0
    Cs:	9.99764e-22	-1.70264e-21	2.70241e-21	0
    Cs(f):	0.00930872	0.00930827	4.49782e-07	0
    Cs(r):	-0.00930872	-0.00930827	-4.49782e-07	0

    writing force and moment coefficient files.

yPlus yPlus1 write:
    writing field yPlus
    patch airfoil y+ : min = 1.23018e-05, max = 0.000996252, average = 0.000231682
Time = 0.05

smoothSolver:  Solving for Ux, Initial residual = 0.00342414, Final residual = 0.000229969, No Iterations 6
smoothSolver:  Solving for Uy, Initial residual = 0.0538753, Final residual = 0.00363924, No Iterations 6
GAMG:  Solving for p, Initial residual = 0.0633513, Final residual = 0.000529446, No Iterations 5
GAMG:  Solving for p, Initial residual = 0.000547785, Final residual = 4.90829e-06, No Iterations 11
GAMG:  Solving for p, Initial residual = 4.91171e-06, Final residual = 9.06131e-08, No Iterations 23
GAMG:  Solving for p, Initial residual = 9.06112e-08, Final residual = 9.06112e-08, No Iterations 0
GAMG:  Solving for p, Initial residual = 9.06112e-08, Final residual = 9.06112e-08, No Iterations 0
GAMG:  Solving for p, Initial residual = 9.06112e-08, Final residual = 9.06112e-08, No Iterations 0
time step continuity errors : sum local = 3.90241e-09, global = -3.65369e-10, cumulative = -3.8381e-08
smoothSolver:  Solving for omega, Initial residual = 5.83971e-07, Final residual = 3.3218e-08, No Iterations 1
smoothSolver:  Solving for k, Initial residual = 0.0108135, Final residual = 0.000684751, No Iterations 6
ExecutionTime = 9.11 s  ClockTime = 71 s

forceCoeffs forceCoeffs1 write:
    Coefficient	Total	Pressure	Viscous	Internal
    Cd:	0.129037	0.12903	7.24986e-06	0
    Cd(f):	0.0563072	0.0563036	3.57966e-06	0
    Cd(r):	0.0727298	0.0727261	3.67021e-06	0
    Cl:	0.109484	0.109484	6.03648e-07	0
    Cl(f):	-0.0096583	-0.00965834	3.53283e-08	0
    Cl(r):	0.119142	0.119142	5.6832e-07	0
    CmPitch:	-0.0644004	-0.0644001	-2.66496e-07	0
    CmRoll:	-0.00821131	-0.00821127	-4.52736e-08	0
    CmYaw:	0.00967777	0.00967723	5.4374e-07	0
    Cs:	9.80754e-22	-1.76862e-21	2.74938e-21	0
    Cs(f):	0.00967777	0.00967723	5.4374e-07	0
    Cs(r):	-0.00967777	-0.00967723	-5.4374e-07	0

    writing force and moment coefficient files.

yPlus yPlus1 write:
    writing field yPlus
    patch airfoil y+ : min = 5.03299e-06, max = 0.0010447, average = 0.000253639
Time = 0.055

smoothSolver:  Solving for Ux, Initial residual = 0.00328102, Final residual = 0.00022343, No Iterations 6
smoothSolver:  Solving for Uy, Initial residual = 0.0504726, Final residual = 0.00343387, No Iterations 6
GAMG:  Solving for p, Initial residual = 0.0578602, Final residual = 0.000525544, No Iterations 5
GAMG:  Solving for p, Initial residual = 0.000541607, Final residual = 4.43412e-06, No Iterations 11
GAMG:  Solving for p, Initial residual = 4.44176e-06, Final residual = 9.04208e-08, No Iterations 19
GAMG:  Solving for p, Initial residual = 9.04292e-08, Final residual = 9.04292e-08, No Iterations 0
GAMG:  Solving for p, Initial residual = 9.04292e-08, Final residual = 9.04292e-08, No Iterations 0
GAMG:  Solving for p, Initial residual = 9.04292e-08, Final residual = 9.04292e-08, No Iterations 0
time step continuity errors : sum local = 3.67257e-09, global = 2.16942e-11, cumulative = -3.83593e-08
smoothSolver:  Solving for omega, Initial residual = 1.98863e-07, Final residual = 1.13972e-08, No Iterations 1
smoothSolver:  Solving for k, Initial residual = 0.0112942, Final residual = 0.000714929, No Iterations 6
ExecutionTime = 9.5 s  ClockTime = 72 s

forceCoeffs forceCoeffs1 write:
    Coefficient	Total	Pressure	Viscous	Internal
    Cd:	0.13234	0.132331	8.66117e-06	0
    Cd(f):	0.0581655	0.0581612	4.27529e-06	0
    Cd(r):	0.0741742	0.0741698	4.38587e-06	0
    Cl:	0.106725	0.106724	7.37201e-07	0
    Cl(f):	-0.00871051	-0.00871056	5.02669e-08	0
    Cl(r):	0.115436	0.115435	6.86934e-07	0
    CmPitch:	-0.062073	-0.0620727	-3.18334e-07	0
    CmRoll:	-0.00800438	-0.00800432	-5.52901e-08	0
    CmYaw:	0.00992548	0.00992483	6.49587e-07	0
    Cs:	9.68315e-22	-1.79042e-21	2.75874e-21	0
    Cs(f):	0.00992548	0.00992483	6.49587e-07	0
    Cs(r):	-0.00992548	-0.00992483	-6.49587e-07	0

    writing force and moment coefficient files.

yPlus yPlus1 write:
    writing field yPlus
    patch airfoil y+ : min = 4.42954e-06, max = 0.00109467, average = 0.00027542
Time = 0.06

smoothSolver:  Solving for Ux, Initial residual = 0.00317009, Final residual = 0.000217568, No Iterations 6
smoothSolver:  Solving for Uy, Initial residual = 0.0475541, Final residual = 0.00324345, No Iterations 6
GAMG:  Solving for p, Initial residual = 0.0533517, Final residual = 0.000512706, No Iterations 5
GAMG:  Solving for p, Initial residual = 0.000525971, Final residual = 4.54265e-06, No Iterations 10
GAMG:  Solving for p, Initial residual = 4.553e-06, Final residual = 5.86633e-08, No Iterations 18
GAMG:  Solving for p, Initial residual = 5.86736e-08, Final residual = 5.86736e-08, No Iterations 0
GAMG:  Solving for p, Initial residual = 5.86736e-08, Final residual = 5.86736e-08, No Iterations 0
GAMG:  Solving for p, Initial residual = 5.86736e-08, Final residual = 5.86736e-08, No Iterations 0
time step continuity errors : sum local = 2.2611e-09, global = 1.26427e-11, cumulative = -3.83466e-08
smoothSolver:  Solving for omega, Initial residual = 6.88182e-08, Final residual = 3.77342e-09, No Iterations 1
smoothSolver:  Solving for k, Initial residual = 0.0118681, Final residual = 0.000749232, No Iterations 6
ExecutionTime = 9.84 s  ClockTime = 72 s

forceCoeffs forceCoeffs1 write:
    Coefficient	Total	Pressure	Viscous	Internal
    Cd:	0.134317	0.134307	1.02617e-05	0
    Cd(f):	0.0595394	0.0595343	5.06471e-06	0
    Cd(r):	0.0747777	0.0747725	5.19699e-06	0
    Cl:	0.101588	0.101587	8.81906e-07	0
    Cl(f):	-0.00693171	-0.00693178	7.17503e-08	0
    Cl(r):	0.10852	0.108519	8.10156e-07	0
    CmPitch:	-0.0577258	-0.0577255	-3.69203e-07	0
    CmRoll:	-0.00761912	-0.00761905	-6.6143e-08	0
    CmYaw:	0.0100738	0.010073	7.69628e-07	0
    Cs:	9.69862e-22	-1.77086e-21	2.74072e-21	0
    Cs(f):	0.0100738	0.010073	7.69628e-07	0
    Cs(r):	-0.0100738	-0.010073	-7.69628e-07	0

    writing force and moment coefficient files.

yPlus yPlus1 write:
    writing field yPlus
    patch airfoil y+ : min = 1.26309e-05, max = 0.00114646, average = 0.00029677
Time = 0.065

smoothSolver:  Solving for Ux, Initial residual = 0.00307456, Final residual = 0.000211902, No Iterations 6
smoothSolver:  Solving for Uy, Initial residual = 0.0449363, Final residual = 0.00306078, No Iterations 6
GAMG:  Solving for p, Initial residual = 0.0496916, Final residual = 0.000493161, No Iterations 5
GAMG:  Solving for p, Initial residual = 0.000504118, Final residual = 4.35932e-06, No Iterations 9
GAMG:  Solving for p, Initial residual = 4.37305e-06, Final residual = 8.99123e-08, No Iterations 18
GAMG:  Solving for p, Initial residual = 8.99425e-08, Final residual = 8.99425e-08, No Iterations 0
GAMG:  Solving for p, Initial residual = 8.99425e-08, Final residual = 8.99425e-08, No Iterations 0
GAMG:  Solving for p, Initial residual = 8.99425e-08, Final residual = 8.99425e-08, No Iterations 0
time step continuity errors : sum local = 3.30323e-09, global = 5.99401e-12, cumulative = -3.83406e-08
smoothSolver:  Solving for omega, Initial residual = 2.42266e-08, Final residual = 1.4666e-09, No Iterations 1
smoothSolver:  Solving for k, Initial residual = 0.012458, Final residual = 0.000786194, No Iterations 6
ExecutionTime = 10.16 s  ClockTime = 73 s

forceCoeffs forceCoeffs1 write:
    Coefficient	Total	Pressure	Viscous	Internal
    Cd:	0.135211	0.135199	1.20779e-05	0
    Cd(f):	0.0605567	0.0605508	5.96136e-06	0
    Cd(r):	0.0746543	0.0746482	6.11652e-06	0
    Cl:	0.0939839	0.0939828	1.03441e-06	0
    Cl(f):	-0.00461341	-0.00461352	1.02532e-07	0
    Cl(r):	0.0985973	0.0985963	9.31879e-07	0
    CmPitch:	-0.0516053	-0.0516049	-4.14673e-07	0
    CmRoll:	-0.00704879	-0.00704871	-7.75808e-08	0
    CmYaw:	0.0101408	0.0101399	9.05841e-07	0
    Cs:	9.81898e-22	-1.70789e-21	2.68979e-21	0
    Cs(f):	0.0101408	0.0101399	9.05841e-07	0
    Cs(r):	-0.0101408	-0.0101399	-9.05841e-07	0

    writing force and moment coefficient files.

yPlus yPlus1 write:
    writing field yPlus
    patch airfoil y+ : min = 1.01411e-05, max = 0.00119909, average = 0.000317491
Time = 0.07

smoothSolver:  Solving for Ux, Initial residual = 0.00299358, Final residual = 0.000206624, No Iterations 6
smoothSolver:  Solving for Uy, Initial residual = 0.0427006, Final residual = 0.00289198, No Iterations 6
GAMG:  Solving for p, Initial residual = 0.0465653, Final residual = 0.000267903, No Iterations 6
GAMG:  Solving for p, Initial residual = 0.0002733, Final residual = 2.15774e-06, No Iterations 10
GAMG:  Solving for p, Initial residual = 2.16454e-06, Final residual = 6.45681e-08, No Iterations 16
GAMG:  Solving for p, Initial residual = 6.4592e-08, Final residual = 6.4592e-08, No Iterations 0
GAMG:  Solving for p, Initial residual = 6.4592e-08, Final residual = 6.4592e-08, No Iterations 0
GAMG:  Solving for p, Initial residual = 6.4592e-08, Final residual = 6.4592e-08, No Iterations 0
time step continuity errors : sum local = 2.27134e-09, global = -2.78861e-11, cumulative = -3.83685e-08
smoothSolver:  Solving for omega, Initial residual = 8.58732e-09, Final residual = 8.58732e-09, No Iterations 0
smoothSolver:  Solving for k, Initial residual = 0.0131488, Final residual = 0.000828568, No Iterations 6
ExecutionTime = 10.52 s  ClockTime = 73 s

forceCoeffs forceCoeffs1 write:
    Coefficient	Total	Pressure	Viscous	Internal
    Cd:	0.135189	0.135175	1.41319e-05	0
    Cd(f):	0.0612338	0.0612268	6.97617e-06	0
    Cd(r):	0.0739557	0.0739486	7.15577e-06	0
    Cl:	0.0848129	0.0848117	1.19733e-06	0
    Cl(f):	-0.00207624	-0.00207639	1.41506e-07	0
    Cl(r):	0.0868891	0.0868881	1.05582e-06	0
    CmPitch:	-0.0444827	-0.0444822	-4.57158e-07	0
    CmRoll:	-0.00636097	-0.00636088	-8.97996e-08	0
    CmYaw:	0.0101392	0.0101382	1.0599e-06	0
    Cs:	1.0034e-21	-1.64142e-21	2.64482e-21	0
    Cs(f):	0.0101392	0.0101382	1.0599e-06	0
    Cs(r):	-0.0101392	-0.0101382	-1.0599e-06	0

    writing force and moment coefficient files.

yPlus yPlus1 write:
    writing field yPlus
    patch airfoil y+ : min = 1.40953e-05, max = 0.00125054, average = 0.000337817
Time = 0.075

smoothSolver:  Solving for Ux, Initial residual = 0.00292342, Final residual = 0.00020158, No Iterations 6
smoothSolver:  Solving for Uy, Initial residual = 0.0408295, Final residual = 0.00275081, No Iterations 6
GAMG:  Solving for p, Initial residual = 0.0437457, Final residual = 0.000255467, No Iterations 6
GAMG:  Solving for p, Initial residual = 0.00026175, Final residual = 1.43363e-06, No Iterations 11
GAMG:  Solving for p, Initial residual = 1.44877e-06, Final residual = 5.72416e-08, No Iterations 10
GAMG:  Solving for p, Initial residual = 5.72629e-08, Final residual = 5.72629e-08, No Iterations 0
GAMG:  Solving for p, Initial residual = 5.72629e-08, Final residual = 5.72629e-08, No Iterations 0
GAMG:  Solving for p, Initial residual = 5.72629e-08, Final residual = 5.72629e-08, No Iterations 0
time step continuity errors : sum local = 1.91572e-09, global = -1.77337e-11, cumulative = -3.83863e-08
smoothSolver:  Solving for omega, Initial residual = 8.58721e-09, Final residual = 8.58721e-09, No Iterations 0
smoothSolver:  Solving for k, Initial residual = 0.0130793, Final residual = 0.000819434, No Iterations 6
ExecutionTime = 10.81 s  ClockTime = 73 s

forceCoeffs forceCoeffs1 write:
    Coefficient	Total	Pressure	Viscous	Internal
    Cd:	0.13422	0.134204	1.64359e-05	0
    Cd(f):	0.0614674	0.0614592	8.11539e-06	0
    Cd(r):	0.0727531	0.0727448	8.32047e-06	0
    Cl:	0.0752382	0.0752368	1.3672e-06	0
    Cl(f):	0.000426514	0.000426324	1.89248e-07	0
    Cl(r):	0.0748117	0.0748105	1.17795e-06	0
    CmPitch:	-0.0371926	-0.0371921	-4.94353e-07	0
    CmRoll:	-0.00564286	-0.00564276	-1.0254e-07	0
    CmYaw:	0.0100665	0.0100653	1.23269e-06	0
    Cs:	9.98076e-22	-1.61103e-21	2.6091e-21	0
    Cs(f):	0.0100665	0.0100653	1.23269e-06	0
    Cs(r):	-0.0100665	-0.0100653	-1.23269e-06	0

    writing force and moment coefficient files.

yPlus yPlus1 write:
    writing field yPlus
    patch airfoil y+ : min = 1.62065e-05, max = 0.00129997, average = 0.000357552
Time = 0.08

smoothSolver:  Solving for Ux, Initial residual = 0.00285744, Final residual = 0.000197541, No Iterations 6
smoothSolver:  Solving for Uy, Initial residual = 0.0394629, Final residual = 0.00264731, No Iterations 6
GAMG:  Solving for p, Initial residual = 0.0420955, Final residual = 0.000253563, No Iterations 6
GAMG:  Solving for p, Initial residual = 0.000259171, Final residual = 1.50688e-06, No Iterations 11
GAMG:  Solving for p, Initial residual = 1.52333e-06, Final residual = 6.13905e-08, No Iterations 10
GAMG:  Solving for p, Initial residual = 6.14137e-08, Final residual = 6.14137e-08, No Iterations 0
GAMG:  Solving for p, Initial residual = 6.14137e-08, Final residual = 6.14137e-08, No Iterations 0
GAMG:  Solving for p, Initial residual = 6.14137e-08, Final residual = 6.14137e-08, No Iterations 0
time step continuity errors : sum local = 1.96289e-09, global = -2.02715e-11, cumulative = -3.84065e-08
smoothSolver:  Solving for omega, Initial residual = 8.58762e-09, Final residual = 8.58762e-09, No Iterations 0
smoothSolver:  Solving for k, Initial residual = 0.0131826, Final residual = 0.00130722, No Iterations 5
ExecutionTime = 11.13 s  ClockTime = 74 s

forceCoeffs forceCoeffs1 write:
    Coefficient	Total	Pressure	Viscous	Internal
    Cd:	0.132676	0.132657	1.89915e-05	0
    Cd(f):	0.0614335	0.0614241	9.38011e-06	0
    Cd(r):	0.0712427	0.0712331	9.61134e-06	0
    Cl:	0.0653949	0.0653934	1.54153e-06	0
    Cl(f):	0.00297568	0.00297543	2.47797e-07	0
    Cl(r):	0.0624192	0.0624179	1.29373e-06	0
    CmPitch:	-0.0297218	-0.0297212	-5.22968e-07	0
    CmRoll:	-0.00490462	-0.0049045	-1.15615e-07	0
    CmYaw:	0.00995071	0.00994929	1.42436e-06	0
    Cs:	9.81118e-22	-1.5892e-21	2.57031e-21	0
    Cs(f):	0.00995071	0.00994929	1.42436e-06	0
    Cs(r):	-0.00995071	-0.00994929	-1.42436e-06	0

    writing force and moment coefficient files.

yPlus yPlus1 write:
    writing field yPlus
    patch airfoil y+ : min = 1.69295e-05, max = 0.00136543, average = 0.00037682
Time = 0.085

smoothSolver:  Solving for Ux, Initial residual = 0.00279895, Final residual = 0.000193948, No Iterations 6
smoothSolver:  Solving for Uy, Initial residual = 0.0383005, Final residual = 0.00256248, No Iterations 6
GAMG:  Solving for p, Initial residual = 0.0407629, Final residual = 0.000249819, No Iterations 6
GAMG:  Solving for p, Initial residual = 0.00025481, Final residual = 2.34427e-06, No Iterations 9
GAMG:  Solving for p, Initial residual = 2.36913e-06, Final residual = 9.47422e-08, No Iterations 10
GAMG:  Solving for p, Initial residual = 9.47986e-08, Final residual = 9.47986e-08, No Iterations 0
GAMG:  Solving for p, Initial residual = 9.47986e-08, Final residual = 9.47986e-08, No Iterations 0
GAMG:  Solving for p, Initial residual = 9.47986e-08, Final residual = 9.47986e-08, No Iterations 0
time step continuity errors : sum local = 2.90715e-09, global = -2.78746e-11, cumulative = -3.84344e-08
smoothSolver:  Solving for omega, Initial residual = 8.58875e-09, Final residual = 8.58875e-09, No Iterations 0
smoothSolver:  Solving for k, Initial residual = 0.0134609, Final residual = 0.00130873, No Iterations 5
ExecutionTime = 11.43 s  ClockTime = 74 s

forceCoeffs forceCoeffs1 write:
    Coefficient	Total	Pressure	Viscous	Internal
    Cd:	0.130809	0.130787	2.17983e-05	0
    Cd(f):	0.0611984	0.0611877	1.07702e-05	0
    Cd(r):	0.0696103	0.0695992	1.10281e-05	0
    Cl:	0.0560787	0.056077	1.71938e-06	0
    Cl(f):	0.00550877	0.00550846	3.18113e-07	0
    Cl(r):	0.05057	0.0505686	1.40126e-06	0
    CmPitch:	-0.0225306	-0.0225301	-5.41576e-07	0
    CmRoll:	-0.00420591	-0.00420578	-1.28953e-07	0
    CmYaw:	0.00981065	0.00980902	1.63487e-06	0
    Cs:	9.61663e-22	-1.55979e-21	2.52146e-21	0
    Cs(f):	0.00981065	0.00980902	1.63487e-06	0
    Cs(r):	-0.00981065	-0.00980902	-1.63487e-06	0

    writing force and moment coefficient files.

yPlus yPlus1 write:
    writing field yPlus
    patch airfoil y+ : min = 8.85905e-06, max = 0.00148895, average = 0.000395017
Time = 0.09

smoothSolver:  Solving for Ux, Initial residual = 0.00274632, Final residual = 0.00019077, No Iterations 6
smoothSolver:  Solving for Uy, Initial residual = 0.037202, Final residual = 0.00248796, No Iterations 6
GAMG:  Solving for p, Initial residual = 0.0395375, Final residual = 0.000249827, No Iterations 6
GAMG:  Solving for p, Initial residual = 0.000254007, Final residual = 2.01041e-06, No Iterations 10
GAMG:  Solving for p, Initial residual = 2.02829e-06, Final residual = 9.28941e-08, No Iterations 18
GAMG:  Solving for p, Initial residual = 9.29616e-08, Final residual = 9.29616e-08, No Iterations 0
GAMG:  Solving for p, Initial residual = 9.29616e-08, Final residual = 9.29616e-08, No Iterations 0
GAMG:  Solving for p, Initial residual = 9.29616e-08, Final residual = 9.29616e-08, No Iterations 0
time step continuity errors : sum local = 2.75195e-09, global = -2.46059e-11, cumulative = -3.8459e-08
smoothSolver:  Solving for omega, Initial residual = 8.58902e-09, Final residual = 8.58902e-09, No Iterations 0
smoothSolver:  Solving for k, Initial residual = 0.0138316, Final residual = 0.00132028, No Iterations 5
ExecutionTime = 11.77 s  ClockTime = 75 s

forceCoeffs forceCoeffs1 write:
    Coefficient	Total	Pressure	Viscous	Internal
    Cd:	0.128799	0.128774	2.48507e-05	0
    Cd(f):	0.060872	0.0608597	1.22828e-05	0
    Cd(r):	0.0679268	0.0679142	1.25679e-05	0
    Cl:	0.0470321	0.0470302	1.90075e-06	0
    Cl(f):	0.00788329	0.00788289	4.00254e-07	0
    Cl(r):	0.0391488	0.0391473	1.50049e-06	0
    CmPitch:	-0.0156328	-0.0156322	-5.50119e-07	0
    CmRoll:	-0.00352741	-0.00352726	-1.42556e-07	0
    CmYaw:	0.0096599	0.00965804	1.8638e-06	0
    Cs:	9.49796e-22	-1.52771e-21	2.4775e-21	0
    Cs(f):	0.0096599	0.00965804	1.8638e-06	0
    Cs(r):	-0.0096599	-0.00965804	-1.8638e-06	0

    writing force and moment coefficient files.

yPlus yPlus1 write:
    writing field yPlus
    patch airfoil y+ : min = 1.24563e-05, max = 0.00161417, average = 0.000412783
Time = 0.095

smoothSolver:  Solving for Ux, Initial residual = 0.00269633, Final residual = 0.0001877, No Iterations 6
smoothSolver:  Solving for Uy, Initial residual = 0.0362063, Final residual = 0.00242012, No Iterations 6
GAMG:  Solving for p, Initial residual = 0.0381396, Final residual = 0.000252058, No Iterations 6
GAMG:  Solving for p, Initial residual = 0.000255857, Final residual = 2.53754e-06, No Iterations 9
GAMG:  Solving for p, Initial residual = 2.5564e-06, Final residual = 9.82195e-08, No Iterations 12
GAMG:  Solving for p, Initial residual = 9.8298e-08, Final residual = 9.8298e-08, No Iterations 0
GAMG:  Solving for p, Initial residual = 9.8298e-08, Final residual = 9.8298e-08, No Iterations 0
GAMG:  Solving for p, Initial residual = 9.8298e-08, Final residual = 9.8298e-08, No Iterations 0
time step continuity errors : sum local = 2.82457e-09, global = -2.82237e-11, cumulative = -3.84872e-08
smoothSolver:  Solving for omega, Initial residual = 8.59005e-09, Final residual = 8.59005e-09, No Iterations 0
smoothSolver:  Solving for k, Initial residual = 0.0142496, Final residual = 0.00134689, No Iterations 5
ExecutionTime = 12.09 s  ClockTime = 75 s

forceCoeffs forceCoeffs1 write:
    Coefficient	Total	Pressure	Viscous	Internal
    Cd:	0.12678	0.126752	2.81384e-05	0
    Cd(f):	0.060468	0.0604541	1.39129e-05	0
    Cd(r):	0.0663123	0.0662981	1.42255e-05	0
    Cl:	0.0389619	0.0389598	2.08368e-06	0
    Cl(f):	0.0100892	0.0100887	4.94379e-07	0
    Cl(r):	0.0288727	0.0288711	1.5893e-06	0
    CmPitch:	-0.00939176	-0.00939121	-5.47459e-07	0
    CmRoll:	-0.00292214	-0.00292199	-1.56276e-07	0
    CmYaw:	0.00950852	0.00950641	2.11038e-06	0
    Cs:	9.37967e-22	-1.4774e-21	2.41537e-21	0
    Cs(f):	0.00950852	0.00950641	2.11038e-06	0
    Cs(r):	-0.00950852	-0.00950641	-2.11038e-06	0

    writing force and moment coefficient files.

yPlus yPlus1 write:
    writing field yPlus
    patch airfoil y+ : min = 1.29397e-05, max = 0.00174659, average = 0.000432989
Time = 0.1

smoothSolver:  Solving for Ux, Initial residual = 0.0026463, Final residual = 0.000184726, No Iterations 6
smoothSolver:  Solving for Uy, Initial residual = 0.0353642, Final residual = 0.00236127, No Iterations 6
GAMG:  Solving for p, Initial residual = 0.0367919, Final residual = 0.00026139, No Iterations 6
GAMG:  Solving for p, Initial residual = 0.000264614, Final residual = 1.70027e-06, No Iterations 11
GAMG:  Solving for p, Initial residual = 1.7087e-06, Final residual = 8.09315e-08, No Iterations 12
GAMG:  Solving for p, Initial residual = 8.09647e-08, Final residual = 8.09647e-08, No Iterations 0
GAMG:  Solving for p, Initial residual = 8.09647e-08, Final residual = 8.09647e-08, No Iterations 0
GAMG:  Solving for p, Initial residual = 8.09647e-08, Final residual = 8.09647e-08, No Iterations 0
time step continuity errors : sum local = 2.27078e-09, global = -2.1029e-11, cumulative = -3.85083e-08
smoothSolver:  Solving for omega, Initial residual = 8.59047e-09, Final residual = 8.59047e-09, No Iterations 0
smoothSolver:  Solving for k, Initial residual = 0.014716, Final residual = 0.00137973, No Iterations 5
ExecutionTime = 12.39 s  ClockTime = 75 s

forceCoeffs forceCoeffs1 write:
    Coefficient	Total	Pressure	Viscous	Internal
    Cd:	0.124813	0.124781	3.16471e-05	0
    Cd(f):	0.0600269	0.0600113	1.56535e-05	0
    Cd(r):	0.0647861	0.0647701	1.59936e-05	0
    Cl:	0.0317278	0.0317255	2.26769e-06	0
    Cl(f):	0.0119919	0.0119913	6.00775e-07	0
    Cl(r):	0.0197359	0.0197343	1.66692e-06	0
    CmPitch:	-0.00387205	-0.00387151	-5.33071e-07	0
    CmRoll:	-0.00237959	-0.00237942	-1.70077e-07	0
    CmYaw:	0.00936098	0.0093586	2.37353e-06	0
    Cs:	9.36468e-22	-1.41127e-21	2.34774e-21	0
    Cs(f):	0.00936098	0.0093586	2.37353e-06	0
    Cs(r):	-0.00936098	-0.0093586	-2.37353e-06	0

    writing force and moment coefficient files.

yPlus yPlus1 write:
    writing field yPlus
    patch airfoil y+ : min = 1.02015e-05, max = 0.00188399, average = 0.000455864
Time = 0.105

smoothSolver:  Solving for Ux, Initial residual = 0.00259901, Final residual = 0.000181607, No Iterations 6
smoothSolver:  Solving for Uy, Initial residual = 0.0345636, Final residual = 0.0023027, No Iterations 6
GAMG:  Solving for p, Initial residual = 0.0352986, Final residual = 0.000266643, No Iterations 6
GAMG:  Solving for p, Initial residual = 0.000269554, Final residual = 1.74522e-06, No Iterations 11
GAMG:  Solving for p, Initial residual = 1.75129e-06, Final residual = 8.85601e-08, No Iterations 10
GAMG:  Solving for p, Initial residual = 8.85876e-08, Final residual = 8.85876e-08, No Iterations 0
GAMG:  Solving for p, Initial residual = 8.85876e-08, Final residual = 8.85876e-08, No Iterations 0
GAMG:  Solving for p, Initial residual = 8.85876e-08, Final residual = 8.85876e-08, No Iterations 0
time step continuity errors : sum local = 2.43654e-09, global = -1.6068e-11, cumulative = -3.85243e-08
smoothSolver:  Solving for omega, Initial residual = 8.59133e-09, Final residual = 8.59133e-09, No Iterations 0
smoothSolver:  Solving for k, Initial residual = 0.015166, Final residual = 0.00142256, No Iterations 5
ExecutionTime = 12.68 s  ClockTime = 76 s

forceCoeffs forceCoeffs1 write:
    Coefficient	Total	Pressure	Viscous	Internal
    Cd:	0.122967	0.122932	3.53601e-05	0
    Cd(f):	0.0595597	0.0595422	1.74962e-05	0
    Cd(r):	0.0634073	0.0633895	1.78639e-05	0
    Cl:	0.0256507	0.0256483	2.45145e-06	0
    Cl(f):	0.0134124	0.0134117	7.19393e-07	0
    Cl(r):	0.0122383	0.0122366	1.73205e-06	0
    CmPitch:	0.000587056	0.000587562	-5.0633e-07	0
    CmRoll:	-0.0019238	-0.00192362	-1.83858e-07	0
    CmYaw:	0.00922253	0.00921988	2.65201e-06	0
    Cs:	9.44479e-22	-1.339e-21	2.28348e-21	0
    Cs(f):	0.00922253	0.00921988	2.65201e-06	0
    Cs(r):	-0.00922253	-0.00921988	-2.65201e-06	0

    writing force and moment coefficient files.

yPlus yPlus1 write:
    writing field yPlus
    patch airfoil y+ : min = 2.02882e-05, max = 0.00202603, average = 0.00047894
Time = 0.11

smoothSolver:  Solving for Ux, Initial residual = 0.00255861, Final residual = 0.000178488, No Iterations 6
smoothSolver:  Solving for Uy, Initial residual = 0.0338363, Final residual = 0.00225283, No Iterations 6
GAMG:  Solving for p, Initial residual = 0.0340049, Final residual = 0.000276494, No Iterations 6
GAMG:  Solving for p, Initial residual = 0.000279018, Final residual = 1.88459e-06, No Iterations 11
GAMG:  Solving for p, Initial residual = 1.88674e-06, Final residual = 9.48263e-08, No Iterations 10
GAMG:  Solving for p, Initial residual = 9.48441e-08, Final residual = 9.48441e-08, No Iterations 0
GAMG:  Solving for p, Initial residual = 9.48441e-08, Final residual = 9.48441e-08, No Iterations 0
GAMG:  Solving for p, Initial residual = 9.48441e-08, Final residual = 9.48441e-08, No Iterations 0
time step continuity errors : sum local = 2.57291e-09, global = -1.38611e-11, cumulative = -3.85382e-08
smoothSolver:  Solving for omega, Initial residual = 8.59209e-09, Final residual = 8.59209e-09, No Iterations 0
smoothSolver:  Solving for k, Initial residual = 0.0157596, Final residual = 0.00147138, No Iterations 5
ExecutionTime = 12.98 s  ClockTime = 76 s

forceCoeffs forceCoeffs1 write:
    Coefficient	Total	Pressure	Viscous	Internal
    Cd:	0.121292	0.121253	3.926e-05	0
    Cd(f):	0.0591053	0.0590859	1.94324e-05	0
    Cd(r):	0.0621871	0.0621672	1.98276e-05	0
    Cl:	0.0205452	0.0205426	2.63507e-06	0
    Cl(f):	0.014171	0.0141702	8.4887e-07	0
    Cl(r):	0.00637421	0.00637242	1.7862e-06	0
    CmPitch:	0.0038984	0.00389886	-4.68667e-07	0
    CmRoll:	-0.00154089	-0.00154069	-1.97631e-07	0
    CmYaw:	0.00909693	0.00909398	2.9445e-06	0
    Cs:	9.60611e-22	-1.28319e-21	2.2438e-21	0
    Cs(f):	0.00909693	0.00909398	2.9445e-06	0
    Cs(r):	-0.00909693	-0.00909398	-2.9445e-06	0

    writing force and moment coefficient files.

yPlus yPlus1 write:
    writing field yPlus
    patch airfoil y+ : min = 2.05001e-05, max = 0.00217211, average = 0.000501468
Time = 0.115

smoothSolver:  Solving for Ux, Initial residual = 0.00251713, Final residual = 0.000175264, No Iterations 6
smoothSolver:  Solving for Uy, Initial residual = 0.0332176, Final residual = 0.0022109, No Iterations 6
GAMG:  Solving for p, Initial residual = 0.0327971, Final residual = 0.000278759, No Iterations 6
GAMG:  Solving for p, Initial residual = 0.000280769, Final residual = 1.86594e-06, No Iterations 11
GAMG:  Solving for p, Initial residual = 1.86558e-06, Final residual = 6.73304e-08, No Iterations 12
GAMG:  Solving for p, Initial residual = 6.73386e-08, Final residual = 6.73386e-08, No Iterations 0
GAMG:  Solving for p, Initial residual = 6.73386e-08, Final residual = 6.73386e-08, No Iterations 0
GAMG:  Solving for p, Initial residual = 6.73386e-08, Final residual = 6.73386e-08, No Iterations 0
time step continuity errors : sum local = 1.80882e-09, global = -9.58532e-12, cumulative = -3.85478e-08
smoothSolver:  Solving for omega, Initial residual = 8.59272e-09, Final residual = 8.59272e-09, No Iterations 0
smoothSolver:  Solving for k, Initial residual = 0.0163486, Final residual = 0.00152408, No Iterations 5
ExecutionTime = 13.28 s  ClockTime = 77 s

forceCoeffs forceCoeffs1 write:
    Coefficient	Total	Pressure	Viscous	Internal
    Cd:	0.119826	0.119782	4.33277e-05	0
    Cd(f):	0.0586042	0.0585827	2.14525e-05	0
    Cd(r):	0.0612216	0.0611997	2.18752e-05	0
    Cl:	0.0174494	0.0174466	2.8179e-06	0
    Cl(f):	0.0143947	0.0143937	9.88544e-07	0
    Cl(r):	0.00305473	0.0030529	1.82936e-06	0
    CmPitch:	0.00566999	0.00567041	-4.20406e-07	0
    CmRoll:	-0.00130871	-0.0013085	-2.11343e-07	0
    CmYaw:	0.00898693	0.00898368	3.24958e-06	0
    Cs:	9.71548e-22	-1.2377e-21	2.20924e-21	0
    Cs(f):	0.00898693	0.00898368	3.24958e-06	0
    Cs(r):	-0.00898693	-0.00898368	-3.24958e-06	0

    writing force and moment coefficient files.

yPlus yPlus1 write:
    writing field yPlus
    patch airfoil y+ : min = 2.4512e-05, max = 0.00232141, average = 0.000525342
Time = 0.12

smoothSolver:  Solving for Ux, Initial residual = 0.00248348, Final residual = 0.00017213, No Iterations 6
smoothSolver:  Solving for Uy, Initial residual = 0.032646, Final residual = 0.00217848, No Iterations 6
GAMG:  Solving for p, Initial residual = 0.0318255, Final residual = 0.000276915, No Iterations 6
GAMG:  Solving for p, Initial residual = 0.000278654, Final residual = 2.74594e-06, No Iterations 10
GAMG:  Solving for p, Initial residual = 2.74573e-06, Final residual = 5.0242e-08, No Iterations 15
GAMG:  Solving for p, Initial residual = 5.02483e-08, Final residual = 5.02483e-08, No Iterations 0
GAMG:  Solving for p, Initial residual = 5.02483e-08, Final residual = 5.02483e-08, No Iterations 0
GAMG:  Solving for p, Initial residual = 5.02483e-08, Final residual = 5.02483e-08, No Iterations 0
time step continuity errors : sum local = 1.33922e-09, global = -1.03913e-11, cumulative = -3.85582e-08
smoothSolver:  Solving for omega, Initial residual = 8.59372e-09, Final residual = 8.59372e-09, No Iterations 0
smoothSolver:  Solving for k, Initial residual = 0.0170633, Final residual = 0.00159198, No Iterations 5
ExecutionTime = 13.6 s  ClockTime = 77 s

forceCoeffs forceCoeffs1 write:
    Coefficient	Total	Pressure	Viscous	Internal
    Cd:	0.11852	0.118473	4.75439e-05	0
    Cd(f):	0.0580219	0.0579983	2.35469e-05	0
    Cd(r):	0.0604985	0.0604745	2.3997e-05	0
    Cl:	0.0165112	0.0165082	3.00094e-06	0
    Cl(f):	0.014018	0.0140169	1.13823e-06	0
    Cl(r):	0.00249318	0.00249132	1.86271e-06	0
    CmPitch:	0.00576243	0.00576279	-3.62241e-07	0
    CmRoll:	-0.00123834	-0.00123812	-2.2507e-07	0
    CmYaw:	0.00888903	0.00888546	3.56579e-06	0
    Cs:	9.86322e-22	-1.18759e-21	2.17391e-21	0
    Cs(f):	0.00888903	0.00888546	3.56579e-06	0
    Cs(r):	-0.00888903	-0.00888546	-3.56579e-06	0

    writing force and moment coefficient files.

yPlus yPlus1 write:
    writing field yPlus
    patch airfoil y+ : min = 8.48403e-06, max = 0.00247397, average = 0.000549713
Time = 0.125

smoothSolver:  Solving for Ux, Initial residual = 0.00244879, Final residual = 0.000169145, No Iterations 6
smoothSolver:  Solving for Uy, Initial residual = 0.0321602, Final residual = 0.00215879, No Iterations 6
GAMG:  Solving for p, Initial residual = 0.0310174, Final residual = 0.00028622, No Iterations 6
GAMG:  Solving for p, Initial residual = 0.000287402, Final residual = 2.4608e-06, No Iterations 10
GAMG:  Solving for p, Initial residual = 2.45681e-06, Final residual = 8.01709e-08, No Iterations 15
GAMG:  Solving for p, Initial residual = 8.01746e-08, Final residual = 8.01746e-08, No Iterations 0
GAMG:  Solving for p, Initial residual = 8.01746e-08, Final residual = 8.01746e-08, No Iterations 0
GAMG:  Solving for p, Initial residual = 8.01746e-08, Final residual = 8.01746e-08, No Iterations 0
time step continuity errors : sum local = 2.12722e-09, global = 1.17395e-10, cumulative = -3.84408e-08
smoothSolver:  Solving for omega, Initial residual = 8.59502e-09, Final residual = 8.59502e-09, No Iterations 0
smoothSolver:  Solving for k, Initial residual = 0.0178433, Final residual = 0.00167069, No Iterations 5
ExecutionTime = 13.91 s  ClockTime = 77 s

forceCoeffs forceCoeffs1 write:
    Coefficient	Total	Pressure	Viscous	Internal
    Cd:	0.117373	0.117321	5.18902e-05	0
    Cd(f):	0.0573314	0.0573056	2.57064e-05	0
    Cd(r):	0.0600418	0.0600157	2.61839e-05	0
    Cl:	0.0180699	0.0180667	3.18302e-06	0
    Cl(f):	0.0131438	0.0131425	1.29848e-06	0
    Cl(r):	0.00492607	0.00492419	1.88454e-06	0
    CmPitch:	0.00410887	0.00410917	-2.93032e-07	0
    CmRoll:	-0.00135524	-0.001355	-2.38727e-07	0
    CmYaw:	0.00880299	0.0087991	3.89177e-06	0
    Cs:	1.0106e-21	-1.12164e-21	2.13224e-21	0
    Cs(f):	0.00880299	0.0087991	3.89177e-06	0
    Cs(r):	-0.00880299	-0.0087991	-3.89177e-06	0

    writing force and moment coefficient files.

yPlus yPlus1 write:
    writing field yPlus
    patch airfoil y+ : min = 3.77613e-05, max = 0.00262988, average = 0.000573908
Time = 0.13

smoothSolver:  Solving for Ux, Initial residual = 0.00241801, Final residual = 0.000166521, No Iterations 6
smoothSolver:  Solving for Uy, Initial residual = 0.0317077, Final residual = 0.00214245, No Iterations 6
GAMG:  Solving for p, Initial residual = 0.0301039, Final residual = 0.000275381, No Iterations 6
GAMG:  Solving for p, Initial residual = 0.000276311, Final residual = 2.35811e-06, No Iterations 10
GAMG:  Solving for p, Initial residual = 2.35756e-06, Final residual = 8.29823e-08, No Iterations 16
GAMG:  Solving for p, Initial residual = 8.29898e-08, Final residual = 8.29898e-08, No Iterations 0
GAMG:  Solving for p, Initial residual = 8.29898e-08, Final residual = 8.29898e-08, No Iterations 0
GAMG:  Solving for p, Initial residual = 8.29898e-08, Final residual = 8.29898e-08, No Iterations 0
time step continuity errors : sum local = 2.19339e-09, global = 1.89299e-10, cumulative = -3.82515e-08
smoothSolver:  Solving for omega, Initial residual = 8.59647e-09, Final residual = 8.59647e-09, No Iterations 0
smoothSolver:  Solving for k, Initial residual = 0.0185987, Final residual = 0.0017563, No Iterations 5
ExecutionTime = 14.24 s  ClockTime = 78 s

forceCoeffs forceCoeffs1 write:
    Coefficient	Total	Pressure	Viscous	Internal
    Cd:	0.116381	0.116324	5.6351e-05	0
    Cd(f):	0.0565218	0.0564939	2.79229e-05	0
    Cd(r):	0.0598588	0.0598304	2.84281e-05	0
    Cl:	0.0222466	0.0222432	3.36753e-06	0
    Cl(f):	0.0117488	0.0117474	1.46801e-06	0
    Cl(r):	0.0104977	0.0104958	1.89952e-06	0
    CmPitch:	0.000625553	0.000625768	-2.15757e-07	0
    CmRoll:	-0.00166849	-0.00166824	-2.52564e-07	0
    CmYaw:	0.00872855	0.00872432	4.22633e-06	0
    Cs:	1.03715e-21	-1.06269e-21	2.09984e-21	0
    Cs(f):	0.00872855	0.00872432	4.22633e-06	0
    Cs(r):	-0.00872855	-0.00872432	-4.22633e-06	0

    writing force and moment coefficient files.

yPlus yPlus1 write:
    writing field yPlus
    patch airfoil y+ : min = 2.79341e-05, max = 0.00278863, average = 0.000596465
Time = 0.135

smoothSolver:  Solving for Ux, Initial residual = 0.00238837, Final residual = 0.000164155, No Iterations 6
smoothSolver:  Solving for Uy, Initial residual = 0.0313454, Final residual = 0.00213084, No Iterations 6
GAMG:  Solving for p, Initial residual = 0.0295315, Final residual = 0.000275822, No Iterations 6
GAMG:  Solving for p, Initial residual = 0.000276501, Final residual = 2.47632e-06, No Iterations 10
GAMG:  Solving for p, Initial residual = 2.47601e-06, Final residual = 7.98662e-08, No Iterations 18
GAMG:  Solving for p, Initial residual = 7.98744e-08, Final residual = 7.98744e-08, No Iterations 0
GAMG:  Solving for p, Initial residual = 7.98744e-08, Final residual = 7.98744e-08, No Iterations 0
GAMG:  Solving for p, Initial residual = 7.98744e-08, Final residual = 7.98744e-08, No Iterations 0
time step continuity errors : sum local = 2.10349e-09, global = 1.592e-10, cumulative = -3.80923e-08
smoothSolver:  Solving for omega, Initial residual = 8.5981e-09, Final residual = 8.5981e-09, No Iterations 0
smoothSolver:  Solving for k, Initial residual = 0.0194451, Final residual = 0.00184987, No Iterations 5
ExecutionTime = 14.59 s  ClockTime = 78 s

forceCoeffs forceCoeffs1 write:
    Coefficient	Total	Pressure	Viscous	Internal
    Cd:	0.115523	0.115462	6.09128e-05	0
    Cd(f):	0.0555889	0.0555587	3.01897e-05	0
    Cd(r):	0.059934	0.0599033	3.07231e-05	0
    Cl:	0.0289677	0.0289642	3.55628e-06	0
    Cl(f):	0.00999997	0.00999832	1.64606e-06	0
    Cl(r):	0.0189678	0.0189659	1.91022e-06	0
    CmPitch:	-0.0044839	-0.00448377	-1.32083e-07	0
    CmRoll:	-0.00217258	-0.00217231	-2.66721e-07	0
    CmYaw:	0.00866421	0.00865965	4.56846e-06	0
    Cs:	1.06273e-21	-1.00165e-21	2.06438e-21	0
    Cs(f):	0.00866421	0.00865965	4.56846e-06	0
    Cs(r):	-0.00866421	-0.00865965	-4.56846e-06	0

    writing force and moment coefficient files.

yPlus yPlus1 write:
    writing field yPlus
    patch airfoil y+ : min = 8.40172e-06, max = 0.00295, average = 0.000617984
Time = 0.14

smoothSolver:  Solving for Ux, Initial residual = 0.00236084, Final residual = 0.000162024, No Iterations 6
smoothSolver:  Solving for Uy, Initial residual = 0.0309818, Final residual = 0.00211775, No Iterations 6
GAMG:  Solving for p, Initial residual = 0.0289503, Final residual = 0.000266577, No Iterations 6
GAMG:  Solving for p, Initial residual = 0.000266983, Final residual = 2.38816e-06, No Iterations 10
GAMG:  Solving for p, Initial residual = 2.38977e-06, Final residual = 6.19172e-08, No Iterations 15
GAMG:  Solving for p, Initial residual = 6.19272e-08, Final residual = 6.19272e-08, No Iterations 0
GAMG:  Solving for p, Initial residual = 6.19272e-08, Final residual = 6.19272e-08, No Iterations 0
GAMG:  Solving for p, Initial residual = 6.19272e-08, Final residual = 6.19272e-08, No Iterations 0
time step continuity errors : sum local = 1.6252e-09, global = -1.51484e-11, cumulative = -3.81074e-08
smoothSolver:  Solving for omega, Initial residual = 8.59999e-09, Final residual = 8.59999e-09, No Iterations 0
smoothSolver:  Solving for k, Initial residual = 0.020288, Final residual = 0.00194626, No Iterations 5
ExecutionTime = 14.92 s  ClockTime = 79 s

forceCoeffs forceCoeffs1 write:
    Coefficient	Total	Pressure	Viscous	Internal
    Cd:	0.114746	0.11468	6.55676e-05	0
    Cd(f):	0.0545596	0.0545271	3.25022e-05	0
    Cd(r):	0.0601864	0.0601534	3.30654e-05	0
    Cl:	0.0375125	0.0375088	3.7548e-06	0
    Cl(f):	0.00792653	0.0079247	1.8302e-06	0
    Cl(r):	0.029586	0.0295841	1.9246e-06	0
    CmPitch:	-0.0108297	-0.0108297	-4.72034e-08	0
    CmRoll:	-0.00281344	-0.00281316	-2.8161e-07	0
    CmYaw:	0.00860595	0.00860103	4.91757e-06	0
    Cs:	1.08724e-21	-9.44082e-22	2.03132e-21	0
    Cs(f):	0.00860595	0.00860103	4.91757e-06	0
    Cs(r):	-0.00860595	-0.00860103	-4.91757e-06	0

    writing force and moment coefficient files.

yPlus yPlus1 write:
    writing field yPlus
    patch airfoil y+ : min = 1.17079e-05, max = 0.00311412, average = 0.000638334
Time = 0.145

smoothSolver:  Solving for Ux, Initial residual = 0.0023369, Final residual = 0.000160028, No Iterations 6
smoothSolver:  Solving for Uy, Initial residual = 0.0306485, Final residual = 0.00210205, No Iterations 6
GAMG:  Solving for p, Initial residual = 0.0284262, Final residual = 0.000259115, No Iterations 6
GAMG:  Solving for p, Initial residual = 0.000259269, Final residual = 1.6104e-06, No Iterations 11
GAMG:  Solving for p, Initial residual = 1.61308e-06, Final residual = 6.84345e-08, No Iterations 10
GAMG:  Solving for p, Initial residual = 6.8448e-08, Final residual = 6.8448e-08, No Iterations 0
GAMG:  Solving for p, Initial residual = 6.8448e-08, Final residual = 6.8448e-08, No Iterations 0
GAMG:  Solving for p, Initial residual = 6.8448e-08, Final residual = 6.8448e-08, No Iterations 0
time step continuity errors : sum local = 1.79191e-09, global = -1.35967e-11, cumulative = -3.8121e-08
smoothSolver:  Solving for omega, Initial residual = 8.60202e-09, Final residual = 8.60202e-09, No Iterations 0
smoothSolver:  Solving for k, Initial residual = 0.0210633, Final residual = 0.00203404, No Iterations 5
ExecutionTime = 15.21 s  ClockTime = 79 s

forceCoeffs forceCoeffs1 write:
    Coefficient	Total	Pressure	Viscous	Internal
    Cd:	0.114016	0.113945	7.03045e-05	0
    Cd(f):	0.0534527	0.0534179	3.48553e-05	0
    Cd(r):	0.0605628	0.0605274	3.54492e-05	0
    Cl:	0.0474005	0.0473966	3.959e-06	0
    Cl(f):	0.00563736	0.00563534	2.02567e-06	0
    Cl(r):	0.0417632	0.0417612	1.93332e-06	0
    CmPitch:	-0.0180629	-0.018063	4.61746e-08	0
    CmRoll:	-0.00355504	-0.00355474	-2.96925e-07	0
    CmYaw:	0.00855117	0.0085459	5.27284e-06	0
    Cs:	1.10761e-21	-8.95416e-22	2.00302e-21	0
    Cs(f):	0.00855117	0.0085459	5.27284e-06	0
    Cs(r):	-0.00855117	-0.0085459	-5.27284e-06	0

    writing force and moment coefficient files.

yPlus yPlus1 write:
    writing field yPlus
    patch airfoil y+ : min = 2.05419e-05, max = 0.00328115, average = 0.000659211
Time = 0.15

smoothSolver:  Solving for Ux, Initial residual = 0.00231351, Final residual = 0.000158256, No Iterations 6
smoothSolver:  Solving for Uy, Initial residual = 0.030352, Final residual = 0.00208259, No Iterations 6
GAMG:  Solving for p, Initial residual = 0.0278649, Final residual = 0.00025521, No Iterations 6
GAMG:  Solving for p, Initial residual = 0.00025527, Final residual = 1.74002e-06, No Iterations 11
GAMG:  Solving for p, Initial residual = 1.74423e-06, Final residual = 7.70278e-08, No Iterations 10
GAMG:  Solving for p, Initial residual = 7.7049e-08, Final residual = 7.7049e-08, No Iterations 0
GAMG:  Solving for p, Initial residual = 7.7049e-08, Final residual = 7.7049e-08, No Iterations 0
GAMG:  Solving for p, Initial residual = 7.7049e-08, Final residual = 7.7049e-08, No Iterations 0
time step continuity errors : sum local = 2.01004e-09, global = -1.75447e-11, cumulative = -3.81386e-08
smoothSolver:  Solving for omega, Initial residual = 8.60407e-09, Final residual = 8.60407e-09, No Iterations 0
smoothSolver:  Solving for k, Initial residual = 0.0217943, Final residual = 0.00211074, No Iterations 5
ExecutionTime = 15.5 s  ClockTime = 79 s

forceCoeffs forceCoeffs1 write:
    Coefficient	Total	Pressure	Viscous	Internal
    Cd:	0.113299	0.113224	7.51225e-05	0
    Cd(f):	0.0522817	0.0522445	3.72481e-05	0
    Cd(r):	0.0610177	0.0609798	3.78745e-05	0
    Cl:	0.0582398	0.0582356	4.17591e-06	0
    Cl(f):	0.0032913	0.00328907	2.23112e-06	0
    Cl(r):	0.0549485	0.0549465	1.9448e-06	0
    CmPitch:	-0.0258286	-0.0258287	1.4316e-07	0
    CmRoll:	-0.00436798	-0.00436767	-3.13193e-07	0
    CmYaw:	0.00849745	0.00849182	5.63419e-06	0
    Cs:	1.12271e-21	-8.4887e-22	1.97158e-21	0
    Cs(f):	0.00849745	0.00849182	5.63419e-06	0
    Cs(r):	-0.00849745	-0.00849182	-5.63419e-06	0

    writing force and moment coefficient files.

yPlus yPlus1 write:
    writing field yPlus
    patch airfoil y+ : min = 2.31499e-05, max = 0.00345155, average = 0.000681463
Time = 0.155

smoothSolver:  Solving for Ux, Initial residual = 0.00229491, Final residual = 0.000156523, No Iterations 6
smoothSolver:  Solving for Uy, Initial residual = 0.0300531, Final residual = 0.00205943, No Iterations 6
GAMG:  Solving for p, Initial residual = 0.0272743, Final residual = 0.000247441, No Iterations 6
GAMG:  Solving for p, Initial residual = 0.000247542, Final residual = 1.75476e-06, No Iterations 11
GAMG:  Solving for p, Initial residual = 1.76098e-06, Final residual = 6.06732e-08, No Iterations 12
GAMG:  Solving for p, Initial residual = 6.07044e-08, Final residual = 6.07044e-08, No Iterations 0
GAMG:  Solving for p, Initial residual = 6.07044e-08, Final residual = 6.07044e-08, No Iterations 0
GAMG:  Solving for p, Initial residual = 6.07044e-08, Final residual = 6.07044e-08, No Iterations 0
time step continuity errors : sum local = 1.57666e-09, global = -1.47412e-11, cumulative = -3.81533e-08
smoothSolver:  Solving for omega, Initial residual = 8.60591e-09, Final residual = 8.60591e-09, No Iterations 0
smoothSolver:  Solving for k, Initial residual = 0.0224683, Final residual = 0.00218296, No Iterations 5
ExecutionTime = 15.82 s  ClockTime = 80 s

forceCoeffs forceCoeffs1 write:
    Coefficient	Total	Pressure	Viscous	Internal
    Cd:	0.11255	0.11247	8.00238e-05	0
    Cd(f):	0.051059	0.0510193	3.96811e-05	0
    Cd(r):	0.0614909	0.0614505	4.03427e-05	0
    Cl:	0.0695459	0.0695415	4.41019e-06	0
    Cl(f):	0.00105756	0.00105511	2.44791e-06	0
    Cl(r):	0.0684884	0.0684864	1.96228e-06	0
    CmPitch:	-0.0337154	-0.0337157	2.42815e-07	0
    CmRoll:	-0.00521595	-0.00521561	-3.30764e-07	0
    CmYaw:	0.00844124	0.00843523	6.00179e-06	0
    Cs:	1.13285e-21	-7.97024e-22	1.92987e-21	0
    Cs(f):	0.00844124	0.00843523	6.00179e-06	0
    Cs(r):	-0.00844124	-0.00843523	-6.00179e-06	0

    writing force and moment coefficient files.

yPlus yPlus1 write:
    writing field yPlus
    patch airfoil y+ : min = 1.6581e-05, max = 0.00362654, average = 0.000703485
Time = 0.16

smoothSolver:  Solving for Ux, Initial residual = 0.00227657, Final residual = 0.000155051, No Iterations 6
smoothSolver:  Solving for Uy, Initial residual = 0.0297794, Final residual = 0.00203633, No Iterations 6
GAMG:  Solving for p, Initial residual = 0.0269737, Final residual = 0.00024472, No Iterations 6
GAMG:  Solving for p, Initial residual = 0.000244648, Final residual = 1.77061e-06, No Iterations 11
GAMG:  Solving for p, Initial residual = 1.77698e-06, Final residual = 7.03793e-08, No Iterations 12
GAMG:  Solving for p, Initial residual = 7.04186e-08, Final residual = 7.04186e-08, No Iterations 0
GAMG:  Solving for p, Initial residual = 7.04186e-08, Final residual = 7.04186e-08, No Iterations 0
GAMG:  Solving for p, Initial residual = 7.04186e-08, Final residual = 7.04186e-08, No Iterations 0
time step continuity errors : sum local = 1.82235e-09, global = -1.99273e-11, cumulative = -3.81732e-08
smoothSolver:  Solving for omega, Initial residual = 2.33907e-08, Final residual = 9.0222e-10, No Iterations 1
smoothSolver:  Solving for k, Initial residual = 0.0236189, Final residual = 0.0022993, No Iterations 5
ExecutionTime = 16.12 s  ClockTime = 80 s

forceCoeffs forceCoeffs1 write:
    Coefficient	Total	Pressure	Viscous	Internal
    Cd:	0.111726	0.111641	8.50156e-05	0
    Cd(f):	0.0498318	0.0497896	4.21577e-05	0
    Cd(r):	0.0618938	0.0618509	4.28579e-05	0
    Cl:	0.0804132	0.0804085	4.66818e-06	0
    Cl(f):	-0.00097347	-0.000976148	2.67789e-06	0
    Cl(r):	0.0813867	0.0813847	1.99029e-06	0
    CmPitch:	-0.0411801	-0.0411804	3.43797e-07	0
    CmRoll:	-0.00603099	-0.00603064	-3.50113e-07	0
    CmYaw:	0.00837942	0.00837304	6.37617e-06	0
    Cs:	1.14083e-21	-7.38932e-22	1.87977e-21	0
    Cs(f):	0.00837942	0.00837304	6.37617e-06	0
    Cs(r):	-0.00837942	-0.00837304	-6.37617e-06	0

    writing force and moment coefficient files.

yPlus yPlus1 write:
    writing field yPlus
    patch airfoil y+ : min = 1.95775e-05, max = 0.00380793, average = 0.000725364
Time = 0.165

smoothSolver:  Solving for Ux, Initial residual = 0.00226315, Final residual = 0.00015382, No Iterations 6
smoothSolver:  Solving for Uy, Initial residual = 0.0294726, Final residual = 0.00201051, No Iterations 6
GAMG:  Solving for p, Initial residual = 0.0263787, Final residual = 0.000247448, No Iterations 6
GAMG:  Solving for p, Initial residual = 0.000246731, Final residual = 1.584e-06, No Iterations 11
GAMG:  Solving for p, Initial residual = 1.58659e-06, Final residual = 6.44311e-08, No Iterations 10
GAMG:  Solving for p, Initial residual = 6.44457e-08, Final residual = 6.44457e-08, No Iterations 0
GAMG:  Solving for p, Initial residual = 6.44457e-08, Final residual = 6.44457e-08, No Iterations 0
GAMG:  Solving for p, Initial residual = 6.44457e-08, Final residual = 6.44457e-08, No Iterations 0
time step continuity errors : sum local = 1.66337e-09, global = -1.68235e-11, cumulative = -3.81901e-08
smoothSolver:  Solving for omega, Initial residual = 1.75093e-06, Final residual = 4.00177e-08, No Iterations 1
smoothSolver:  Solving for k, Initial residual = 0.0242159, Final residual = 0.00236659, No Iterations 5
ExecutionTime = 16.45 s  ClockTime = 81 s

forceCoeffs forceCoeffs1 write:
    Coefficient	Total	Pressure	Viscous	Internal
    Cd:	0.110801	0.110711	9.011e-05	0
    Cd(f):	0.048654	0.0486093	4.46832e-05	0
    Cd(r):	0.062147	0.0621016	4.54268e-05	0
    Cl:	0.0899536	0.0899486	4.95727e-06	0
    Cl(f):	-0.00261446	-0.00261739	2.92337e-06	0
    Cl(r):	0.092568	0.092566	2.0339e-06	0
    CmPitch:	-0.0475913	-0.0475917	4.44733e-07	0
    CmRoll:	-0.00674652	-0.00674615	-3.71795e-07	0
    CmYaw:	0.00831007	0.00830331	6.75825e-06	0
    Cs:	1.15162e-21	-6.74967e-22	1.82658e-21	0
    Cs(f):	0.00831007	0.00830331	6.75825e-06	0
    Cs(r):	-0.00831007	-0.00830331	-6.75825e-06	0

    writing force and moment coefficient files.

yPlus yPlus1 write:
    writing field yPlus
    patch airfoil y+ : min = 5.36656e-06, max = 0.00399518, average = 0.000748897
Time = 0.17

smoothSolver:  Solving for Ux, Initial residual = 0.00224848, Final residual = 0.000152471, No Iterations 6
smoothSolver:  Solving for Uy, Initial residual = 0.0291195, Final residual = 0.00197942, No Iterations 6
GAMG:  Solving for p, Initial residual = 0.0259275, Final residual = 0.000254669, No Iterations 6
GAMG:  Solving for p, Initial residual = 0.000253161, Final residual = 2.42702e-06, No Iterations 9
GAMG:  Solving for p, Initial residual = 2.42235e-06, Final residual = 6.74873e-08, No Iterations 12
GAMG:  Solving for p, Initial residual = 6.74902e-08, Final residual = 6.74902e-08, No Iterations 0
GAMG:  Solving for p, Initial residual = 6.74902e-08, Final residual = 6.74902e-08, No Iterations 0
GAMG:  Solving for p, Initial residual = 6.74902e-08, Final residual = 6.74902e-08, No Iterations 0
time step continuity errors : sum local = 1.74638e-09, global = -4.93285e-12, cumulative = -3.8195e-08
smoothSolver:  Solving for omega, Initial residual = 2.93221e-06, Final residual = 6.98926e-08, No Iterations 1
smoothSolver:  Solving for k, Initial residual = 0.0248797, Final residual = 0.0024364, No Iterations 5
ExecutionTime = 16.77 s  ClockTime = 81 s

forceCoeffs forceCoeffs1 write:
    Coefficient	Total	Pressure	Viscous	Internal
    Cd:	0.109784	0.109689	9.53242e-05	0
    Cd(f):	0.0475459	0.0474986	4.72657e-05	0
    Cd(r):	0.0622382	0.0621901	4.80585e-05	0
    Cl:	0.0979486	0.0979433	5.28514e-06	0
    Cl(f):	-0.00382529	-0.00382848	3.18754e-06	0
    Cl(r):	0.101774	0.101772	2.0976e-06	0
    CmPitch:	-0.0527996	-0.0528002	5.44972e-07	0
    CmRoll:	-0.00734615	-0.00734575	-3.96385e-07	0
    CmYaw:	0.0082338	0.00822665	7.14932e-06	0
    Cs:	1.16778e-21	-6.07398e-22	1.77518e-21	0
    Cs(f):	0.0082338	0.00822665	7.14932e-06	0
    Cs(r):	-0.0082338	-0.00822665	-7.14932e-06	0

    writing force and moment coefficient files.

yPlus yPlus1 write:
    writing field yPlus
    patch airfoil y+ : min = 0.000148658, max = 0.00418931, average = 0.000775443
Time = 0.175

smoothSolver:  Solving for Ux, Initial residual = 0.00223541, Final residual = 0.000151348, No Iterations 6
smoothSolver:  Solving for Uy, Initial residual = 0.0286626, Final residual = 0.00194579, No Iterations 6
GAMG:  Solving for p, Initial residual = 0.0250793, Final residual = 0.000179257, No Iterations 7
GAMG:  Solving for p, Initial residual = 0.000177424, Final residual = 1.50711e-06, No Iterations 9
GAMG:  Solving for p, Initial residual = 1.50346e-06, Final residual = 9.60263e-08, No Iterations 12
GAMG:  Solving for p, Initial residual = 9.60228e-08, Final residual = 9.60228e-08, No Iterations 0
GAMG:  Solving for p, Initial residual = 9.60228e-08, Final residual = 9.60228e-08, No Iterations 0
GAMG:  Solving for p, Initial residual = 9.60228e-08, Final residual = 9.60228e-08, No Iterations 0
time step continuity errors : sum local = 2.50178e-09, global = 2.37352e-10, cumulative = -3.79576e-08
smoothSolver:  Solving for omega, Initial residual = 2.79318e-06, Final residual = 7.20293e-08, No Iterations 1
smoothSolver:  Solving for k, Initial residual = 0.0254723, Final residual = 0.00250669, No Iterations 5
ExecutionTime = 17.11 s  ClockTime = 81 s

forceCoeffs forceCoeffs1 write:
    Coefficient	Total	Pressure	Viscous	Internal
    Cd:	0.108655	0.108554	0.000100681	0
    Cd(f):	0.0465185	0.0464686	4.99161e-05	0
    Cd(r):	0.0621362	0.0620855	5.07652e-05	0
    Cl:	0.104118	0.104112	5.6605e-06	0
    Cl(f):	-0.00460751	-0.00461099	3.47442e-06	0
    Cl(r):	0.108726	0.108723	2.18608e-06	0
    CmPitch:	-0.0566666	-0.0566672	6.44171e-07	0
    CmRoll:	-0.00780886	-0.00780843	-4.24538e-07	0
    CmYaw:	0.0081491	0.00814155	7.5511e-06	0
    Cs:	1.18699e-21	-5.34739e-22	1.72173e-21	0
    Cs(f):	0.0081491	0.00814155	7.5511e-06	0
    Cs(r):	-0.0081491	-0.00814155	-7.5511e-06	0

    writing force and moment coefficient files.

yPlus yPlus1 write:
    writing field yPlus
    patch airfoil y+ : min = 0.000183636, max = 0.00439153, average = 0.000799516
Time = 0.18

smoothSolver:  Solving for Ux, Initial residual = 0.00222299, Final residual = 0.000150432, No Iterations 6
smoothSolver:  Solving for Uy, Initial residual = 0.028225, Final residual = 0.00191097, No Iterations 6
GAMG:  Solving for p, Initial residual = 0.0239681, Final residual = 0.000174238, No Iterations 7
GAMG:  Solving for p, Initial residual = 0.000172268, Final residual = 1.05993e-06, No Iterations 10
GAMG:  Solving for p, Initial residual = 1.05736e-06, Final residual = 7.52499e-08, No Iterations 8
GAMG:  Solving for p, Initial residual = 7.52455e-08, Final residual = 7.52455e-08, No Iterations 0
GAMG:  Solving for p, Initial residual = 7.52455e-08, Final residual = 7.52455e-08, No Iterations 0
GAMG:  Solving for p, Initial residual = 7.52455e-08, Final residual = 7.52455e-08, No Iterations 0
time step continuity errors : sum local = 1.97756e-09, global = 5.61044e-11, cumulative = -3.79015e-08
smoothSolver:  Solving for omega, Initial residual = 2.9159e-06, Final residual = 7.46562e-08, No Iterations 1
smoothSolver:  Solving for k, Initial residual = 0.025897, Final residual = 0.00256013, No Iterations 5
ExecutionTime = 17.43 s  ClockTime = 82 s

forceCoeffs forceCoeffs1 write:
    Coefficient	Total	Pressure	Viscous	Internal
    Cd:	0.107435	0.107329	0.000106209	0
    Cd(f):	0.0455733	0.0455207	5.26477e-05	0
    Cd(r):	0.0618614	0.0618079	5.35618e-05	0
    Cl:	0.108588	0.108581	6.09366e-06	0
    Cl(f):	-0.00494215	-0.00494593	3.78788e-06	0
    Cl(r):	0.11353	0.113527	2.30578e-06	0
    CmPitch:	-0.0592359	-0.0592366	7.41054e-07	0
    CmRoll:	-0.00814406	-0.00814361	-4.57025e-07	0
    CmYaw:	0.0080576	0.00804964	7.96571e-06	0
    Cs:	1.20713e-21	-4.58031e-22	1.66516e-21	0
    Cs(f):	0.0080576	0.00804964	7.96571e-06	0
    Cs(r):	-0.0080576	-0.00804964	-7.96571e-06	0

    writing force and moment coefficient files.

yPlus yPlus1 write:
    writing field yPlus
    patch airfoil y+ : min = 9.78328e-05, max = 0.00460288, average = 0.000822302
Time = 0.185

smoothSolver:  Solving for Ux, Initial residual = 0.00221469, Final residual = 0.000149917, No Iterations 6
smoothSolver:  Solving for Uy, Initial residual = 0.0278561, Final residual = 0.00187948, No Iterations 6
GAMG:  Solving for p, Initial residual = 0.0230286, Final residual = 0.000164135, No Iterations 7
GAMG:  Solving for p, Initial residual = 0.000162236, Final residual = 1.36221e-06, No Iterations 9
GAMG:  Solving for p, Initial residual = 1.35898e-06, Final residual = 7.89359e-08, No Iterations 11
GAMG:  Solving for p, Initial residual = 7.89288e-08, Final residual = 7.89288e-08, No Iterations 0
GAMG:  Solving for p, Initial residual = 7.89288e-08, Final residual = 7.89288e-08, No Iterations 0
GAMG:  Solving for p, Initial residual = 7.89288e-08, Final residual = 7.89288e-08, No Iterations 0
time step continuity errors : sum local = 2.09457e-09, global = 2.0474e-10, cumulative = -3.76968e-08
smoothSolver:  Solving for omega, Initial residual = 1.41679e-06, Final residual = 4.11172e-08, No Iterations 1
smoothSolver:  Solving for k, Initial residual = 0.0260998, Final residual = 0.00258804, No Iterations 5
ExecutionTime = 17.74 s  ClockTime = 82 s

forceCoeffs forceCoeffs1 write:
    Coefficient	Total	Pressure	Viscous	Internal
    Cd:	0.106133	0.106021	0.00011194	0
    Cd(f):	0.0447145	0.044659	5.54754e-05	0
    Cd(r):	0.0614182	0.0613618	5.64643e-05	0
    Cl:	0.111358	0.111352	6.59249e-06	0
    Cl(f):	-0.00483654	-0.00484068	4.1333e-06	0
    Cl(r):	0.116195	0.116192	2.45919e-06	0
    CmPitch:	-0.0605157	-0.0605165	8.37053e-07	0
    CmRoll:	-0.00835187	-0.00835137	-4.94437e-07	0
    CmYaw:	0.00795995	0.00795156	8.39548e-06	0
    Cs:	1.22868e-21	-3.81053e-22	1.60974e-21	0
    Cs(f):	0.00795995	0.00795156	8.39548e-06	0
    Cs(r):	-0.00795995	-0.00795156	-8.39548e-06	0

    writing force and moment coefficient files.

yPlus yPlus1 write:
    writing field yPlus
    patch airfoil y+ : min = 0.000105042, max = 0.00482422, average = 0.000844418
Time = 0.19

smoothSolver:  Solving for Ux, Initial residual = 0.00220835, Final residual = 0.000149647, No Iterations 6
smoothSolver:  Solving for Uy, Initial residual = 0.0275319, Final residual = 0.00185185, No Iterations 6
GAMG:  Solving for p, Initial residual = 0.0221877, Final residual = 0.000153618, No Iterations 7
GAMG:  Solving for p, Initial residual = 0.00015193, Final residual = 1.11554e-06, No Iterations 9
GAMG:  Solving for p, Initial residual = 1.11295e-06, Final residual = 5.6529e-08, No Iterations 10
GAMG:  Solving for p, Initial residual = 5.65232e-08, Final residual = 5.65232e-08, No Iterations 0
GAMG:  Solving for p, Initial residual = 5.65232e-08, Final residual = 5.65232e-08, No Iterations 0
GAMG:  Solving for p, Initial residual = 5.65232e-08, Final residual = 5.65232e-08, No Iterations 0
time step continuity errors : sum local = 1.51428e-09, global = 1.68573e-11, cumulative = -3.76799e-08
smoothSolver:  Solving for omega, Initial residual = 7.68325e-07, Final residual = 2.16627e-08, No Iterations 1
smoothSolver:  Solving for k, Initial residual = 0.026072, Final residual = 0.00259246, No Iterations 5
ExecutionTime = 18.03 s  ClockTime = 83 s

forceCoeffs forceCoeffs1 write:
    Coefficient	Total	Pressure	Viscous	Internal
    Cd:	0.104764	0.104646	0.000117906	0
    Cd(f):	0.0439301	0.0438717	5.84153e-05	0
    Cd(r):	0.060834	0.0607745	5.94907e-05	0
    Cl:	0.112693	0.112685	7.16915e-06	0
    Cl(f):	-0.00434665	-0.00435116	4.51364e-06	0
    Cl(r):	0.117039	0.117036	2.65551e-06	0
    CmPitch:	-0.0606929	-0.0606938	9.29067e-07	0
    CmRoll:	-0.00845194	-0.0084514	-5.37687e-07	0
    CmYaw:	0.00785731	0.00784846	8.84295e-06	0
    Cs:	1.25053e-21	-3.03925e-22	1.55445e-21	0
    Cs(f):	0.00785731	0.00784846	8.84295e-06	0
    Cs(r):	-0.00785731	-0.00784846	-8.84295e-06	0

    writing force and moment coefficient files.

yPlus yPlus1 write:
    writing field yPlus
    patch airfoil y+ : min = 3.90635e-05, max = 0.00505608, average = 0.000865729
Time = 0.195

smoothSolver:  Solving for Ux, Initial residual = 0.00220408, Final residual = 0.000149547, No Iterations 6
smoothSolver:  Solving for Uy, Initial residual = 0.0272378, Final residual = 0.00182671, No Iterations 6
GAMG:  Solving for p, Initial residual = 0.0215677, Final residual = 0.000142783, No Iterations 7
GAMG:  Solving for p, Initial residual = 0.000141363, Final residual = 1.02446e-06, No Iterations 9
GAMG:  Solving for p, Initial residual = 1.02217e-06, Final residual = 5.89984e-08, No Iterations 10
GAMG:  Solving for p, Initial residual = 5.89923e-08, Final residual = 5.89923e-08, No Iterations 0
GAMG:  Solving for p, Initial residual = 5.89923e-08, Final residual = 5.89923e-08, No Iterations 0
GAMG:  Solving for p, Initial residual = 5.89923e-08, Final residual = 5.89923e-08, No Iterations 0
time step continuity errors : sum local = 1.59427e-09, global = 1.58611e-11, cumulative = -3.76641e-08
smoothSolver:  Solving for omega, Initial residual = 7.56835e-07, Final residual = 1.98996e-08, No Iterations 1
smoothSolver:  Solving for k, Initial residual = 0.0259367, Final residual = 0.00257436, No Iterations 5
ExecutionTime = 18.31 s  ClockTime = 83 s

forceCoeffs forceCoeffs1 write:
    Coefficient	Total	Pressure	Viscous	Internal
    Cd:	0.103342	0.103218	0.000124143	0
    Cd(f):	0.0432129	0.0431514	6.14841e-05	0
    Cd(r):	0.0601288	0.0600661	6.26587e-05	0
    Cl:	0.112772	0.112765	7.83064e-06	0
    Cl(f):	-0.00358294	-0.00358787	4.93299e-06	0
[...]
    patch airfoil y+ : min = 0.000383967, max = 0.0255691, average = 0.0113128
Time = 6.78

smoothSolver:  Solving for Ux, Initial residual = 7.64827e-07, Final residual = 5.47514e-08, No Iterations 6
smoothSolver:  Solving for Uy, Initial residual = 2.93064e-06, Final residual = 2.21974e-07, No Iterations 6
GAMG:  Solving for p, Initial residual = 1.05423e-05, Final residual = 6.51211e-08, No Iterations 6
GAMG:  Solving for p, Initial residual = 6.51214e-08, Final residual = 6.51214e-08, No Iterations 0
GAMG:  Solving for p, Initial residual = 6.51214e-08, Final residual = 6.51214e-08, No Iterations 0
GAMG:  Solving for p, Initial residual = 6.51214e-08, Final residual = 6.51214e-08, No Iterations 0
GAMG:  Solving for p, Initial residual = 6.51214e-08, Final residual = 6.51214e-08, No Iterations 0
GAMG:  Solving for p, Initial residual = 6.51214e-08, Final residual = 6.51214e-08, No Iterations 0
time step continuity errors : sum local = 7.26322e-10, global = -7.59131e-12, cumulative = -2.95852e-08
smoothSolver:  Solving for omega, Initial residual = 9.43591e-10, Final residual = 9.43591e-10, No Iterations 0
smoothSolver:  Solving for k, Initial residual = 2.1716e-06, Final residual = 1.38171e-07, No Iterations 6
ExecutionTime = 319.61 s  ClockTime = 481 s

forceCoeffs forceCoeffs1 write:
    Coefficient	Total	Pressure	Viscous	Internal
    Cd:	0.0327643	0.0205298	0.0122345	0
    Cd(f):	-0.0968032	-0.102893	0.00608953	0
    Cd(r):	0.129568	0.123423	0.006145	0
    Cl:	1.50914	1.50877	0.000369736	0
    Cl(f):	-0.0573835	-0.0583805	0.000996982	0
    Cl(r):	1.56652	1.56715	-0.000627246	0
    CmPitch:	-0.811953	-0.812765	0.000812114	0
    CmRoll:	-0.113185	-0.113158	-2.77302e-05	0
    CmYaw:	0.00245732	0.00153973	0.00091759	0
    Cs:	4.72408e-21	1.16569e-20	-6.93286e-21	0
    Cs(f):	0.00245732	0.00153973	0.00091759	0
    Cs(r):	-0.00245732	-0.00153973	-0.00091759	0

    writing force and moment coefficient files.

yPlus yPlus1 write:
    writing field yPlus
    patch airfoil y+ : min = 0.000385733, max = 0.025569, average = 0.0113127
Time = 6.785

smoothSolver:  Solving for Ux, Initial residual = 7.61175e-07, Final residual = 5.44849e-08, No Iterations 6
smoothSolver:  Solving for Uy, Initial residual = 2.91312e-06, Final residual = 2.20783e-07, No Iterations 6
GAMG:  Solving for p, Initial residual = 1.0414e-05, Final residual = 6.48615e-08, No Iterations 6
GAMG:  Solving for p, Initial residual = 6.48618e-08, Final residual = 6.48618e-08, No Iterations 0
GAMG:  Solving for p, Initial residual = 6.48618e-08, Final residual = 6.48618e-08, No Iterations 0
GAMG:  Solving for p, Initial residual = 6.48618e-08, Final residual = 6.48618e-08, No Iterations 0
GAMG:  Solving for p, Initial residual = 6.48618e-08, Final residual = 6.48618e-08, No Iterations 0
GAMG:  Solving for p, Initial residual = 6.48618e-08, Final residual = 6.48618e-08, No Iterations 0
time step continuity errors : sum local = 7.23424e-10, global = -7.63264e-12, cumulative = -2.95928e-08
smoothSolver:  Solving for omega, Initial residual = 4.20552e-09, Final residual = 4.20552e-09, No Iterations 0
smoothSolver:  Solving for k, Initial residual = 2.11287e-06, Final residual = 1.3482e-07, No Iterations 6
ExecutionTime = 319.81 s  ClockTime = 482 s

forceCoeffs forceCoeffs1 write:
    Coefficient	Total	Pressure	Viscous	Internal
    Cd:	0.0327641	0.0205296	0.0122344	0
    Cd(f):	-0.0968024	-0.102892	0.00608949	0
    Cd(r):	0.129566	0.123421	0.00614495	0
    Cl:	1.50913	1.50876	0.000369747	0
    Cl(f):	-0.0573823	-0.0583792	0.000996964	0
    Cl(r):	1.56651	1.56713	-0.000627218	0
    CmPitch:	-0.811945	-0.812757	0.000812091	0
    CmRoll:	-0.113184	-0.113157	-2.7731e-05	0
    CmYaw:	0.0024573	0.00153972	0.000917583	0
    Cs:	4.72406e-21	1.16569e-20	-6.9328e-21	0
    Cs(f):	0.0024573	0.00153972	0.000917583	0
    Cs(r):	-0.0024573	-0.00153972	-0.000917583	0

    writing force and moment coefficient files.

yPlus yPlus1 write:
    writing field yPlus
    patch airfoil y+ : min = 0.00038745, max = 0.0255689, average = 0.0113127
Time = 6.79

smoothSolver:  Solving for Ux, Initial residual = 7.57524e-07, Final residual = 5.42188e-08, No Iterations 6
smoothSolver:  Solving for Uy, Initial residual = 2.89616e-06, Final residual = 2.19608e-07, No Iterations 6
GAMG:  Solving for p, Initial residual = 1.02987e-05, Final residual = 6.46862e-08, No Iterations 6
GAMG:  Solving for p, Initial residual = 6.46865e-08, Final residual = 6.46865e-08, No Iterations 0
GAMG:  Solving for p, Initial residual = 6.46865e-08, Final residual = 6.46865e-08, No Iterations 0
GAMG:  Solving for p, Initial residual = 6.46865e-08, Final residual = 6.46865e-08, No Iterations 0
GAMG:  Solving for p, Initial residual = 6.46865e-08, Final residual = 6.46865e-08, No Iterations 0
GAMG:  Solving for p, Initial residual = 6.46865e-08, Final residual = 6.46865e-08, No Iterations 0
time step continuity errors : sum local = 7.21467e-10, global = -7.61392e-12, cumulative = -2.96004e-08
smoothSolver:  Solving for omega, Initial residual = 7.67581e-09, Final residual = 7.67581e-09, No Iterations 0
smoothSolver:  Solving for k, Initial residual = 2.06015e-06, Final residual = 1.31716e-07, No Iterations 6
ExecutionTime = 320 s  ClockTime = 482 s

forceCoeffs forceCoeffs1 write:
    Coefficient	Total	Pressure	Viscous	Internal
    Cd:	0.0327638	0.0205295	0.0122344	0
    Cd(f):	-0.0968015	-0.102891	0.00608945	0
    Cd(r):	0.129565	0.12342	0.00614491	0
    Cl:	1.50911	1.50874	0.000369757	0
    Cl(f):	-0.057381	-0.058378	0.000996947	0
    Cl(r):	1.56649	1.56712	-0.00062719	0
    CmPitch:	-0.811937	-0.812749	0.000812069	0
    CmRoll:	-0.113183	-0.113156	-2.77318e-05	0
    CmYaw:	0.00245729	0.00153971	0.000917577	0
    Cs:	4.72403e-21	1.16568e-20	-6.93274e-21	0
    Cs(f):	0.00245729	0.00153971	0.000917577	0
    Cs(r):	-0.00245729	-0.00153971	-0.000917577	0

    writing force and moment coefficient files.

yPlus yPlus1 write:
    writing field yPlus
    patch airfoil y+ : min = 0.000389106, max = 0.0255688, average = 0.0113126
Time = 6.795

smoothSolver:  Solving for Ux, Initial residual = 7.53877e-07, Final residual = 5.39542e-08, No Iterations 6
smoothSolver:  Solving for Uy, Initial residual = 2.87946e-06, Final residual = 2.18448e-07, No Iterations 6
GAMG:  Solving for p, Initial residual = 1.01954e-05, Final residual = 6.45216e-08, No Iterations 6
GAMG:  Solving for p, Initial residual = 6.4522e-08, Final residual = 6.4522e-08, No Iterations 0
GAMG:  Solving for p, Initial residual = 6.4522e-08, Final residual = 6.4522e-08, No Iterations 0
GAMG:  Solving for p, Initial residual = 6.4522e-08, Final residual = 6.4522e-08, No Iterations 0
GAMG:  Solving for p, Initial residual = 6.4522e-08, Final residual = 6.4522e-08, No Iterations 0
GAMG:  Solving for p, Initial residual = 6.4522e-08, Final residual = 6.4522e-08, No Iterations 0
time step continuity errors : sum local = 7.19631e-10, global = -7.57778e-12, cumulative = -2.9608e-08
smoothSolver:  Solving for omega, Initial residual = 1.12432e-08, Final residual = 2.31181e-10, No Iterations 1
smoothSolver:  Solving for k, Initial residual = 2.47374e-06, Final residual = 1.55188e-07, No Iterations 6
ExecutionTime = 320.21 s  ClockTime = 482 s

forceCoeffs forceCoeffs1 write:
    Coefficient	Total	Pressure	Viscous	Internal
    Cd:	0.0327636	0.0205293	0.0122343	0
    Cd(f):	-0.0968007	-0.10289	0.00608941	0
    Cd(r):	0.129564	0.123419	0.00614487	0
    Cl:	1.5091	1.50873	0.000369767	0
    Cl(f):	-0.0573798	-0.0583768	0.00099693	0
    Cl(r):	1.56648	1.56711	-0.000627164	0
    CmPitch:	-0.811929	-0.812742	0.000812047	0
    CmRoll:	-0.113182	-0.113155	-2.77325e-05	0
    CmYaw:	0.00245727	0.0015397	0.000917571	0
    Cs:	4.724e-21	1.16567e-20	-6.93268e-21	0
    Cs(f):	0.00245727	0.0015397	0.000917571	0
    Cs(r):	-0.00245727	-0.0015397	-0.000917571	0

    writing force and moment coefficient files.

yPlus yPlus1 write:
    writing field yPlus
    patch airfoil y+ : min = 0.000390686, max = 0.0255688, average = 0.0113125
Time = 6.8

smoothSolver:  Solving for Ux, Initial residual = 7.50652e-07, Final residual = 5.36708e-08, No Iterations 6
smoothSolver:  Solving for Uy, Initial residual = 2.87115e-06, Final residual = 2.17476e-07, No Iterations 6
GAMG:  Solving for p, Initial residual = 1.05782e-05, Final residual = 6.64172e-08, No Iterations 6
GAMG:  Solving for p, Initial residual = 6.64176e-08, Final residual = 6.64176e-08, No Iterations 0
GAMG:  Solving for p, Initial residual = 6.64176e-08, Final residual = 6.64176e-08, No Iterations 0
GAMG:  Solving for p, Initial residual = 6.64176e-08, Final residual = 6.64176e-08, No Iterations 0
GAMG:  Solving for p, Initial residual = 6.64176e-08, Final residual = 6.64176e-08, No Iterations 0
GAMG:  Solving for p, Initial residual = 6.64176e-08, Final residual = 6.64176e-08, No Iterations 0
time step continuity errors : sum local = 7.4077e-10, global = -7.85867e-12, cumulative = -2.96158e-08
smoothSolver:  Solving for omega, Initial residual = 4.00488e-09, Final residual = 4.00488e-09, No Iterations 0
smoothSolver:  Solving for k, Initial residual = 2.48908e-06, Final residual = 1.57053e-07, No Iterations 6
ExecutionTime = 320.41 s  ClockTime = 483 s

forceCoeffs forceCoeffs1 write:
    Coefficient	Total	Pressure	Viscous	Internal
    Cd:	0.0327633	0.0205291	0.0122342	0
    Cd(f):	-0.0967998	-0.102889	0.00608937	0
    Cd(r):	0.129563	0.123418	0.00614484	0
    Cl:	1.50909	1.50872	0.000369776	0
    Cl(f):	-0.0573786	-0.0583755	0.000996914	0
    Cl(r):	1.56646	1.56709	-0.000627138	0
    CmPitch:	-0.811922	-0.812734	0.000812026	0
    CmRoll:	-0.113181	-0.113154	-2.77332e-05	0
    CmYaw:	0.00245725	0.00153969	0.000917565	0
    Cs:	4.72397e-21	1.16566e-20	-6.93263e-21	0
    Cs(f):	0.00245725	0.00153969	0.000917565	0
    Cs(r):	-0.00245725	-0.00153969	-0.000917565	0

    writing force and moment coefficient files.

yPlus yPlus1 write:
    writing field yPlus
    patch airfoil y+ : min = 0.00039218, max = 0.0255687, average = 0.0113124
Time = 6.805

smoothSolver:  Solving for Ux, Initial residual = 7.47296e-07, Final residual = 5.34362e-08, No Iterations 6
smoothSolver:  Solving for Uy, Initial residual = 2.85182e-06, Final residual = 2.15994e-07, No Iterations 6
GAMG:  Solving for p, Initial residual = 1.04035e-05, Final residual = 6.44076e-08, No Iterations 6
GAMG:  Solving for p, Initial residual = 6.4408e-08, Final residual = 6.4408e-08, No Iterations 0
GAMG:  Solving for p, Initial residual = 6.4408e-08, Final residual = 6.4408e-08, No Iterations 0
GAMG:  Solving for p, Initial residual = 6.4408e-08, Final residual = 6.4408e-08, No Iterations 0
GAMG:  Solving for p, Initial residual = 6.4408e-08, Final residual = 6.4408e-08, No Iterations 0
GAMG:  Solving for p, Initial residual = 6.4408e-08, Final residual = 6.4408e-08, No Iterations 0
time step continuity errors : sum local = 7.18355e-10, global = -7.59496e-12, cumulative = -2.96234e-08
smoothSolver:  Solving for omega, Initial residual = 2.25884e-09, Final residual = 2.25884e-09, No Iterations 0
smoothSolver:  Solving for k, Initial residual = 2.41204e-06, Final residual = 1.52857e-07, No Iterations 6
ExecutionTime = 320.62 s  ClockTime = 483 s

forceCoeffs forceCoeffs1 write:
    Coefficient	Total	Pressure	Viscous	Internal
    Cd:	0.0327631	0.020529	0.0122341	0
    Cd(f):	-0.0967989	-0.102888	0.00608933	0
    Cd(r):	0.129562	0.123417	0.0061448	0
    Cl:	1.50907	1.5087	0.000369785	0
    Cl(f):	-0.0573773	-0.0583742	0.000996898	0
    Cl(r):	1.56645	1.56708	-0.000627112	0
    CmPitch:	-0.811914	-0.812726	0.000812005	0
    CmRoll:	-0.11318	-0.113153	-2.77339e-05	0
    CmYaw:	0.00245723	0.00153967	0.00091756	0
    Cs:	4.72395e-21	1.16565e-20	-6.93257e-21	0
    Cs(f):	0.00245723	0.00153967	0.00091756	0
    Cs(r):	-0.00245723	-0.00153967	-0.00091756	0

    writing force and moment coefficient files.

yPlus yPlus1 write:
    writing field yPlus
    patch airfoil y+ : min = 0.000393571, max = 0.0255686, average = 0.0113124
Time = 6.81

smoothSolver:  Solving for Ux, Initial residual = 7.43916e-07, Final residual = 5.31869e-08, No Iterations 6
smoothSolver:  Solving for Uy, Initial residual = 2.83494e-06, Final residual = 2.14879e-07, No Iterations 6
GAMG:  Solving for p, Initial residual = 1.02689e-05, Final residual = 6.36899e-08, No Iterations 6
GAMG:  Solving for p, Initial residual = 6.36903e-08, Final residual = 6.36903e-08, No Iterations 0
GAMG:  Solving for p, Initial residual = 6.36903e-08, Final residual = 6.36903e-08, No Iterations 0
GAMG:  Solving for p, Initial residual = 6.36903e-08, Final residual = 6.36903e-08, No Iterations 0
GAMG:  Solving for p, Initial residual = 6.36903e-08, Final residual = 6.36903e-08, No Iterations 0
GAMG:  Solving for p, Initial residual = 6.36903e-08, Final residual = 6.36903e-08, No Iterations 0
time step continuity errors : sum local = 7.10349e-10, global = -7.55813e-12, cumulative = -2.9631e-08
smoothSolver:  Solving for omega, Initial residual = 1.55494e-09, Final residual = 1.55494e-09, No Iterations 0
smoothSolver:  Solving for k, Initial residual = 2.34187e-06, Final residual = 1.48945e-07, No Iterations 6
ExecutionTime = 320.84 s  ClockTime = 483 s

forceCoeffs forceCoeffs1 write:
    Coefficient	Total	Pressure	Viscous	Internal
    Cd:	0.0327629	0.0205288	0.0122341	0
    Cd(f):	-0.0967981	-0.102887	0.00608929	0
    Cd(r):	0.129561	0.123416	0.00614476	0
    Cl:	1.50906	1.50869	0.000369794	0
    Cl(f):	-0.0573762	-0.058373	0.000996882	0
    Cl(r):	1.56644	1.56706	-0.000627088	0
    CmPitch:	-0.811906	-0.812718	0.000811985	0
    CmRoll:	-0.11318	-0.113152	-2.77346e-05	0
    CmYaw:	0.00245722	0.00153966	0.000917554	0
    Cs:	4.72392e-21	1.16564e-20	-6.93251e-21	0
    Cs(f):	0.00245722	0.00153966	0.000917554	0
    Cs(r):	-0.00245722	-0.00153966	-0.000917554	0

    writing force and moment coefficient files.

yPlus yPlus1 write:
    writing field yPlus
    patch airfoil y+ : min = 0.000394855, max = 0.0255686, average = 0.0113123
Time = 6.815

smoothSolver:  Solving for Ux, Initial residual = 7.40434e-07, Final residual = 5.29344e-08, No Iterations 6
smoothSolver:  Solving for Uy, Initial residual = 2.8184e-06, Final residual = 2.13767e-07, No Iterations 6
GAMG:  Solving for p, Initial residual = 1.01428e-05, Final residual = 6.34387e-08, No Iterations 6
GAMG:  Solving for p, Initial residual = 6.34391e-08, Final residual = 6.34391e-08, No Iterations 0
GAMG:  Solving for p, Initial residual = 6.34391e-08, Final residual = 6.34391e-08, No Iterations 0
GAMG:  Solving for p, Initial residual = 6.34391e-08, Final residual = 6.34391e-08, No Iterations 0
GAMG:  Solving for p, Initial residual = 6.34391e-08, Final residual = 6.34391e-08, No Iterations 0
GAMG:  Solving for p, Initial residual = 6.34391e-08, Final residual = 6.34391e-08, No Iterations 0
time step continuity errors : sum local = 7.07545e-10, global = -7.60226e-12, cumulative = -2.96386e-08
smoothSolver:  Solving for omega, Initial residual = 4.84326e-09, Final residual = 4.84326e-09, No Iterations 0
smoothSolver:  Solving for k, Initial residual = 2.27859e-06, Final residual = 1.45302e-07, No Iterations 6
ExecutionTime = 321.01 s  ClockTime = 483 s

forceCoeffs forceCoeffs1 write:
    Coefficient	Total	Pressure	Viscous	Internal
    Cd:	0.0327627	0.0205287	0.012234	0
    Cd(f):	-0.0967972	-0.102886	0.00608926	0
    Cd(r):	0.12956	0.123415	0.00614473	0
    Cl:	1.50905	1.50868	0.000369802	0
    Cl(f):	-0.057375	-0.0583719	0.000996867	0
    Cl(r):	1.56642	1.56705	-0.000627064	0
    CmPitch:	-0.811899	-0.812711	0.000811965	0
    CmRoll:	-0.113179	-0.113151	-2.77352e-05	0
    CmYaw:	0.0024572	0.00153965	0.000917549	0
    Cs:	4.72389e-21	1.16563e-20	-6.93245e-21	0
    Cs(f):	0.0024572	0.00153965	0.000917549	0
    Cs(r):	-0.0024572	-0.00153965	-0.000917549	0

    writing force and moment coefficient files.

yPlus yPlus1 write:
    writing field yPlus
    patch airfoil y+ : min = 0.000396025, max = 0.0255685, average = 0.0113122
Time = 6.82

smoothSolver:  Solving for Ux, Initial residual = 7.36945e-07, Final residual = 5.26821e-08, No Iterations 6
smoothSolver:  Solving for Uy, Initial residual = 2.80232e-06, Final residual = 2.12667e-07, No Iterations 6
GAMG:  Solving for p, Initial residual = 1.00276e-05, Final residual = 6.32603e-08, No Iterations 6
GAMG:  Solving for p, Initial residual = 6.32606e-08, Final residual = 6.32606e-08, No Iterations 0
GAMG:  Solving for p, Initial residual = 6.32606e-08, Final residual = 6.32606e-08, No Iterations 0
GAMG:  Solving for p, Initial residual = 6.32606e-08, Final residual = 6.32606e-08, No Iterations 0
GAMG:  Solving for p, Initial residual = 6.32606e-08, Final residual = 6.32606e-08, No Iterations 0
GAMG:  Solving for p, Initial residual = 6.32606e-08, Final residual = 6.32606e-08, No Iterations 0
time step continuity errors : sum local = 7.05554e-10, global = -7.59092e-12, cumulative = -2.96462e-08
smoothSolver:  Solving for omega, Initial residual = 8.26632e-09, Final residual = 8.26632e-09, No Iterations 0
smoothSolver:  Solving for k, Initial residual = 2.22283e-06, Final residual = 1.4194e-07, No Iterations 6
ExecutionTime = 321.21 s  ClockTime = 484 s

forceCoeffs forceCoeffs1 write:
    Coefficient	Total	Pressure	Viscous	Internal
    Cd:	0.0327625	0.0205286	0.0122339	0
    Cd(f):	-0.0967964	-0.102886	0.00608922	0
    Cd(r):	0.129559	0.123414	0.00614469	0
    Cl:	1.50903	1.50867	0.00036981	0
    Cl(f):	-0.0573738	-0.0583707	0.000996851	0
    Cl(r):	1.56641	1.56704	-0.000627041	0
    CmPitch:	-0.811891	-0.812703	0.000811946	0
    CmRoll:	-0.113178	-0.11315	-2.77358e-05	0
    CmYaw:	0.00245719	0.00153964	0.000917543	0
    Cs:	4.72386e-21	1.16563e-20	-6.9324e-21	0
    Cs(f):	0.00245719	0.00153964	0.000917543	0
    Cs(r):	-0.00245719	-0.00153964	-0.000917543	0

    writing force and moment coefficient files.

yPlus yPlus1 write:
    writing field yPlus
    patch airfoil y+ : min = 0.000397071, max = 0.0255684, average = 0.0113122
Time = 6.825

smoothSolver:  Solving for Ux, Initial residual = 7.33528e-07, Final residual = 5.24271e-08, No Iterations 6
smoothSolver:  Solving for Uy, Initial residual = 2.78658e-06, Final residual = 2.11572e-07, No Iterations 6
GAMG:  Solving for p, Initial residual = 9.91855e-06, Final residual = 6.29933e-08, No Iterations 6
GAMG:  Solving for p, Initial residual = 6.29936e-08, Final residual = 6.29936e-08, No Iterations 0
GAMG:  Solving for p, Initial residual = 6.29936e-08, Final residual = 6.29936e-08, No Iterations 0
GAMG:  Solving for p, Initial residual = 6.29936e-08, Final residual = 6.29936e-08, No Iterations 0
GAMG:  Solving for p, Initial residual = 6.29936e-08, Final residual = 6.29936e-08, No Iterations 0
GAMG:  Solving for p, Initial residual = 6.29936e-08, Final residual = 6.29936e-08, No Iterations 0
time step continuity errors : sum local = 7.02574e-10, global = -7.56355e-12, cumulative = -2.96537e-08
smoothSolver:  Solving for omega, Initial residual = 1.17134e-08, Final residual = 3.25134e-10, No Iterations 1
smoothSolver:  Solving for k, Initial residual = 2.62057e-06, Final residual = 1.64658e-07, No Iterations 6
ExecutionTime = 321.38 s  ClockTime = 484 s


SIMPLE solution converged in 6.825 iterations

forceCoeffs forceCoeffs1 write:
    Coefficient	Total	Pressure	Viscous	Internal
    Cd:	0.0327623	0.0205284	0.0122338	0
    Cd(f):	-0.0967955	-0.102885	0.00608919	0
    Cd(r):	0.129558	0.123413	0.00614466	0
    Cl:	1.50902	1.50865	0.000369818	0
    Cl(f):	-0.0573727	-0.0583695	0.000996837	0
    Cl(r):	1.56639	1.56702	-0.000627019	0
    CmPitch:	-0.811884	-0.812696	0.000811928	0
    CmRoll:	-0.113177	-0.113149	-2.77363e-05	0
    CmYaw:	0.00245717	0.00153963	0.000917538	0
    Cs:	4.72384e-21	1.16562e-20	-6.93234e-21	0
    Cs(f):	0.00245717	0.00153963	0.000917538	0
    Cs(r):	-0.00245717	-0.00153963	-0.000917538	0

    writing force and moment coefficient files.

yPlus yPlus1 write:
    writing field yPlus
    patch airfoil y+ : min = 0.000397987, max = 0.0255684, average = 0.0113121
End

